# ---------- Initialize Simulation ---------------------
units metal
dimension 3
boundary p p p
atom_style full
variable stable_structure file stable.txt
variable lattice_guess file lattice_guess.txt
lattice fcc 3.6
Lattice spacing in x,y,z = 3.6 3.6 3.6
region box block 0 1 0 1 0 1 units lattice
create_box 1 box
Created orthogonal box = (0 0 0) to (3.6 3.6 3.6)
create_atoms 1 box
Created 4 atoms
variable unit_cells equal "7"
replicate 7 7 7
  orthogonal box = (0 0 0) to (25.2 25.2 25.2)
  1372 atoms
  replicate CPU = 0.000609522 secs

# ---------- Define Interatomic Potential ---------------------
variable pairstyle file pairsty.txt
pair_style eam/fs
variable potential file potential.txt
variable type file type.txt
pair_coeff * * Cu1.eam.fs Cu
neighbor 2.0 bin
neigh_modify delay 10 check yes

# ---------- Define Thermo State ---------------------
variable tempset     file lat_temp.txt # K
variable presset     equal 1.0 # bars

# ---------- Run Minimization ---------------------
min_style cg
minimize 1e-25 1e-25 5000 1000
  update every 1 steps, delay 0 steps, check yes
Step Temp E_pair E_mol TotEng Press
0            0   -4496.8886            0   -4496.8886    48195.375
Loop time of 0.0093021 on 1 procs for 1 steps with 1372 atoms

Minimization stats:
  Stopping criterion = energy tolerance
  Energy initial, next-to-last, final =
  Force two-norm initial, final = 3.26473e-13 3.08016e-13
  Force max component initial, final = 1.50019e-14 1.47833e-14
  Final line search alpha, max atom move = 1 1.47833e-14
  Iterations, force evaluations = 1 2

velocity all create 1.0 87979 dist gaussian
variable timestep1     equal 0.001

timestep 0.001
thermo 100
thermo_style custom step pe lx ly lz ke etotal temp press density
# ---------- Run Dynamics ---------------------
fix 1 all nve
run 10000
Step PotEng Lx Ly Lz KinEng TotEng Temp Press Density
1   -4496.8886         25.2         25.2         25.2   0.17721566   -4496.7114            1    48207.203    9.0466912
Averages over the last 51 of 102 rows, steps 5100 to 10001:
PotEng Lx Ly Lz KinEng TotEng Temp Press Density
-4496.8 25.2 25.2 25.2 0.0879366 -4496.71 0.496212 48223.8 9.04669
Loop time of 27.1442 on 1 procs for 10000 steps with 1372 atoms

unfix 1
variable thermofac     equal 100.0
variable tempdamp equal 100*0.001
variable presfac     equal 1000.0
variable presdamp equal 1000*0.001

#
#-----------NPT ------------------------
#
fix     2 all npt temp 1.0 1.0 0.1 iso 1 1 1
run     10000
Step PotEng Lx Ly Lz KinEng TotEng Temp Press Density
10001   -4496.7924         25.2         25.2         25.2  0.081084892   -4496.7113   0.45754925    48223.813    9.0466912
Averages over the last 51 of 102 rows, steps 15100 to 20001:
PotEng Lx Ly Lz KinEng TotEng Temp Press Density
-4504.26 25.4738 25.4738 25.4738 0.176817 -4504.08 0.99775 0.9918 8.75806
Loop time of 29.3608 on 1 procs for 10000 steps with 1372 atoms

variable natoms equal "count(all)"
variable teng equal "pe"
variable length equal "lx"
variable latconst equal 25.4738541382908/7
variable ecoh equal "v_teng/v_natoms"
variable T equal "temp"

print ""

print "-------------------------------"
Total energy (eV) = -4504.24839053461;
Number of atoms = 1372;
Lattice constant (Angstoms) = 25.4738541382908;
Cohesive energy (eV) = -3.28297987648295;

print "All done!"
All done!
print "-------------------------------"
print ""

3.63912201975583
0.941866260905297
# ---------- Initialize Simulation ---------------------
units metal
dimension 3
boundary p p p
atom_style full
variable stable_structure file stable.txt
variable lattice_guess file lattice_guess.txt
lattice fcc 3.6
Lattice spacing in x,y,z = 3.6 3.6 3.6
region box block 0 1 0 1 0 1 units lattice
create_box 1 box
Created orthogonal box = (0 0 0) to (3.6 3.6 3.6)
create_atoms 1 box
Created 4 atoms
variable unit_cells equal "7"
replicate 7 7 7
  orthogonal box = (0 0 0) to (25.2 25.2 25.2)
  1372 atoms
  replicate CPU = 0.000615111 secs

# ---------- Define Interatomic Potential ---------------------
variable pairstyle file pairsty.txt
pair_style eam/fs
variable potential file potential.txt
variable type file type.txt
pair_coeff * * Cu1.eam.fs Cu
neighbor 2.0 bin
neigh_modify delay 10 check yes

# ---------- Define Thermo State ---------------------
variable tempset     file lat_temp.txt # K
variable presset     equal 1.0 # bars

# ---------- Run Minimization ---------------------
min_style cg
minimize 1e-25 1e-25 5000 1000
  update every 1 steps, delay 0 steps, check yes
Step Temp E_pair E_mol TotEng Press
0            0   -4496.8886            0   -4496.8886    48195.375
Loop time of 0.00935621 on 1 procs for 1 steps with 1372 atoms

Minimization stats:
  Stopping criterion = energy tolerance
  Energy initial, next-to-last, final =
  Force two-norm initial, final = 3.26473e-13 3.08016e-13
  Force max component initial, final = 1.50019e-14 1.47833e-14
  Final line search alpha, max atom move = 1 1.47833e-14
  Iterations, force evaluations = 1 2

velocity all create 301.0 87979 dist gaussian
variable timestep1     equal 0.001

timestep 0.001
thermo 100
thermo_style custom step pe lx ly lz ke etotal temp press density
# ---------- Run Dynamics ---------------------
fix 1 all nve
run 10000
Step PotEng Lx Ly Lz KinEng TotEng Temp Press Density
1   -4496.8886         25.2         25.2         25.2    53.341913   -4443.5467          301    51755.671    9.0466912
Averages over the last 51 of 102 rows, steps 5100 to 10001:
PotEng Lx Ly Lz KinEng TotEng Temp Press Density
-4470.41 25.2 25.2 25.2 26.8717 -4443.54 151.633 56430.2 9.04669
Loop time of 30.4614 on 1 procs for 10000 steps with 1372 atoms

unfix 1
variable thermofac     equal 100.0
variable tempdamp equal 100*0.001
variable presfac     equal 1000.0
variable presdamp equal 1000*0.001

#
#-----------NPT ------------------------
#
fix     2 all npt temp 301.0 301.0 0.1 iso 1 1 1
run     10000
Step PotEng Lx Ly Lz KinEng TotEng Temp Press Density
10001   -4470.9031         25.2         25.2         25.2    27.363524   -4443.5396    154.40805    56382.776    9.0466912
Averages over the last 51 of 102 rows, steps 15100 to 20001:
PotEng Lx Ly Lz KinEng TotEng Temp Press Density
-4449.91 25.5544 25.5544 25.5544 53.2556 -4396.66 300.513 128.75 8.67545
Loop time of 32.4286 on 1 procs for 10000 steps with 1372 atoms

variable natoms equal "count(all)"
variable teng equal "pe"
variable length equal "lx"
variable latconst equal 25.5328422559011/7
variable ecoh equal "v_teng/v_natoms"
variable T equal "temp"

print ""

print "-------------------------------"
Total energy (eV) = -4451.87371988312;
Number of atoms = 1372;
Lattice constant (Angstoms) = 25.5328422559011;
Cohesive energy (eV) = -3.24480591828216;

print "All done!"
All done!
print "-------------------------------"
print ""

3.64754889370016
297.857208935391
# ---------- Initialize Simulation ---------------------
units metal
dimension 3
boundary p p p
atom_style full
variable stable_structure file stable.txt
variable lattice_guess file lattice_guess.txt
lattice fcc 3.6
Lattice spacing in x,y,z = 3.6 3.6 3.6
region box block 0 1 0 1 0 1 units lattice
create_box 1 box
Created orthogonal box = (0 0 0) to (3.6 3.6 3.6)
create_atoms 1 box
Created 4 atoms
variable unit_cells equal "7"
replicate 7 7 7
  orthogonal box = (0 0 0) to (25.2 25.2 25.2)
  1372 atoms
  replicate CPU = 0.000610959 secs

# ---------- Define Interatomic Potential ---------------------
variable pairstyle file pairsty.txt
pair_style eam/fs
variable potential file potential.txt
variable type file type.txt
pair_coeff * * Cu1.eam.fs Cu
neighbor 2.0 bin
neigh_modify delay 10 check yes

# ---------- Define Thermo State ---------------------
variable tempset     file lat_temp.txt # K
variable presset     equal 1.0 # bars

# ---------- Run Minimization ---------------------
min_style cg
minimize 1e-25 1e-25 5000 1000
  update every 1 steps, delay 0 steps, check yes
Step Temp E_pair E_mol TotEng Press
0            0   -4496.8886            0   -4496.8886    48195.375
Loop time of 0.00921322 on 1 procs for 1 steps with 1372 atoms

Minimization stats:
  Stopping criterion = energy tolerance
  Energy initial, next-to-last, final =
  Force two-norm initial, final = 3.26473e-13 3.08016e-13
  Force max component initial, final = 1.50019e-14 1.47833e-14
  Final line search alpha, max atom move = 1 1.47833e-14
  Iterations, force evaluations = 1 2

velocity all create 601.0 87979 dist gaussian
variable timestep1     equal 0.001

timestep 0.001
thermo 100
thermo_style custom step pe lx ly lz ke etotal temp press density
# ---------- Run Dynamics ---------------------
fix 1 all nve
run 10000
Step PotEng Lx Ly Lz KinEng TotEng Temp Press Density
1   -4496.8886         25.2         25.2         25.2    106.50661    -4390.382          601    55304.138    9.0466912
Averages over the last 51 of 102 rows, steps 5100 to 10001:
PotEng Lx Ly Lz KinEng TotEng Temp Press Density
-4443.66 25.2 25.2 25.2 53.2913 -4390.37 300.714 64589.1 9.04669
Loop time of 29.2937 on 1 procs for 10000 steps with 1372 atoms

unfix 1
variable thermofac     equal 100.0
variable tempdamp equal 100*0.001
variable presfac     equal 1000.0
variable presdamp equal 1000*0.001

#
#-----------NPT ------------------------
#
fix     2 all npt temp 601.0 601.0 0.1 iso 1 1 1
run     10000
Step PotEng Lx Ly Lz KinEng TotEng Temp Press Density
10001   -4442.5143         25.2         25.2         25.2    52.146868   -4390.3674    294.25655    65050.719    9.0466912
Averages over the last 51 of 102 rows, steps 15100 to 20001:
PotEng Lx Ly Lz KinEng TotEng Temp Press Density
-4391.6 25.6508 25.6508 25.6508 106.539 -4285.06 601.185 19.8296 8.57804
Loop time of 31.1848 on 1 procs for 10000 steps with 1372 atoms

variable natoms equal "count(all)"
variable teng equal "pe"
variable length equal "lx"
variable latconst equal 25.6316770319532/7
variable ecoh equal "v_teng/v_natoms"
variable T equal "temp"

print ""

print "-------------------------------"
Total energy (eV) = -4396.21640088305;
Number of atoms = 1372;
Lattice constant (Angstoms) = 25.6316770319532;
Cohesive energy (eV) = -3.20423935924421;

print "All done!"
All done!
print "-------------------------------"
print ""

3.66166814742189
595.615781528752
# ---------- Initialize Simulation ---------------------
units metal
dimension 3
boundary p p p
atom_style full
variable stable_structure file stable.txt
variable lattice_guess file lattice_guess.txt
lattice fcc 3.6
Lattice spacing in x,y,z = 3.6 3.6 3.6
region box block 0 1 0 1 0 1 units lattice
create_box 1 box
Created orthogonal box = (0 0 0) to (3.6 3.6 3.6)
create_atoms 1 box
Created 4 atoms
variable unit_cells equal "7"
replicate 7 7 7
  orthogonal box = (0 0 0) to (25.2 25.2 25.2)
  1372 atoms
  replicate CPU = 0.000595512 secs

# ---------- Define Interatomic Potential ---------------------
variable pairstyle file pairsty.txt
pair_style eam/fs
variable potential file potential.txt
variable type file type.txt
pair_coeff * * Cu1.eam.fs Cu
neighbor 2.0 bin
neigh_modify delay 10 check yes

# ---------- Define Thermo State ---------------------
variable tempset     file lat_temp.txt # K
variable presset     equal 1.0 # bars

# ---------- Run Minimization ---------------------
min_style cg
minimize 1e-25 1e-25 5000 1000
  update every 1 steps, delay 0 steps, check yes
Step Temp E_pair E_mol TotEng Press
0            0   -4496.8886            0   -4496.8886    48195.375
Loop time of 0.00918501 on 1 procs for 1 steps with 1372 atoms

Minimization stats:
  Stopping criterion = energy tolerance
  Energy initial, next-to-last, final =
  Force two-norm initial, final = 3.26473e-13 3.08016e-13
  Force max component initial, final = 1.50019e-14 1.47833e-14
  Final line search alpha, max atom move = 1 1.47833e-14
  Iterations, force evaluations = 1 2

velocity all create 901.0 87979 dist gaussian
variable timestep1     equal 0.001

timestep 0.001
thermo 100
thermo_style custom step pe lx ly lz ke etotal temp press density
# ---------- Run Dynamics ---------------------
fix 1 all nve
run 10000
Step PotEng Lx Ly Lz KinEng TotEng Temp Press Density
1   -4496.8886         25.2         25.2         25.2    159.67131   -4337.2173          901    58852.606    9.0466912
Averages over the last 51 of 102 rows, steps 5100 to 10001:
PotEng Lx Ly Lz KinEng TotEng Temp Press Density
-4417.06 25.2 25.2 25.2 79.8643 -4337.2 450.662 72318.7 9.04669
Loop time of 30.5207 on 1 procs for 10000 steps with 1372 atoms

unfix 1
variable thermofac     equal 100.0
variable tempdamp equal 100*0.001
variable presfac     equal 1000.0
variable presdamp equal 1000*0.001

#
#-----------NPT ------------------------
#
fix     2 all npt temp 901.0 901.0 0.1 iso 1 1 1
run     10000
Step PotEng Lx Ly Lz KinEng TotEng Temp Press Density
10001   -4417.9371         25.2         25.2         25.2    80.741407   -4337.1956    455.61102    72251.536    9.0466912
Averages over the last 51 of 102 rows, steps 15100 to 20001:
PotEng Lx Ly Lz KinEng TotEng Temp Press Density
-4326.9 25.7464 25.7464 25.7464 160.451 -4166.45 905.401 -140.222 8.48288
Loop time of 32.6126 on 1 procs for 10000 steps with 1372 atoms

variable natoms equal "count(all)"
variable teng equal "pe"
variable length equal "lx"
variable latconst equal 25.7646392253627/7
variable ecoh equal "v_teng/v_natoms"
variable T equal "temp"

print ""

print "-------------------------------"
Total energy (eV) = -4323.90746948633;
Number of atoms = 1372;
Lattice constant (Angstoms) = 25.7646392253627;
Cohesive energy (eV) = -3.15153605647692;

print "All done!"
All done!
print "-------------------------------"
print ""

3.68066274648039
907.017725053669
# ---------- Initialize Simulation ---------------------
units metal
dimension 3
boundary p p p
atom_style full
variable stable_structure file stable.txt
variable lattice_guess file lattice_guess.txt
lattice fcc 3.6
Lattice spacing in x,y,z = 3.6 3.6 3.6
region box block 0 1 0 1 0 1 units lattice
create_box 1 box
Created orthogonal box = (0 0 0) to (3.6 3.6 3.6)
create_atoms 1 box
Created 4 atoms
variable unit_cells equal "7"
replicate 7 7 7
  orthogonal box = (0 0 0) to (25.2 25.2 25.2)
  1372 atoms
  replicate CPU = 0.000595647 secs

# ---------- Define Interatomic Potential ---------------------
variable pairstyle file pairsty.txt
pair_style eam/fs
variable potential file potential.txt
variable type file type.txt
pair_coeff * * Cu1.eam.fs Cu
neighbor 2.0 bin
neigh_modify delay 10 check yes

# ---------- Define Thermo State ---------------------
variable tempset     file lat_temp.txt # K
variable presset     equal 1.0 # bars

# ---------- Run Minimization ---------------------
min_style cg
minimize 1e-25 1e-25 5000 1000
  update every 1 steps, delay 0 steps, check yes
Step Temp E_pair E_mol TotEng Press
0            0   -4496.8886            0   -4496.8886    48195.375
Loop time of 0.00927479 on 1 procs for 1 steps with 1372 atoms

Minimization stats:
  Stopping criterion = energy tolerance
  Energy initial, next-to-last, final =
  Force two-norm initial, final = 3.26473e-13 3.08016e-13
  Force max component initial, final = 1.50019e-14 1.47833e-14
  Final line search alpha, max atom move = 1 1.47833e-14
  Iterations, force evaluations = 1 2

velocity all create 1201.0 87979 dist gaussian
variable timestep1     equal 0.001

timestep 0.001
thermo 100
thermo_style custom step pe lx ly lz ke etotal temp press density
# ---------- Run Dynamics ---------------------
fix 1 all nve
run 10000
Step PotEng Lx Ly Lz KinEng TotEng Temp Press Density
1   -4496.8886         25.2         25.2         25.2    212.83601   -4284.0526         1201    62401.073    9.0466912
Averages over the last 51 of 102 rows, steps 5100 to 10001:
PotEng Lx Ly Lz KinEng TotEng Temp Press Density
-4388.92 25.2 25.2 25.2 104.902 -4284.02 591.947 79676.2 9.04669
Loop time of 30.6333 on 1 procs for 10000 steps with 1372 atoms

unfix 1
variable thermofac     equal 100.0
variable tempdamp equal 100*0.001
variable presfac     equal 1000.0
variable presdamp equal 1000*0.001

#
#-----------NPT ------------------------
#
fix     2 all npt temp 1201.0 1201.0 0.1 iso 1 1 1
run     10000
Step PotEng Lx Ly Lz KinEng TotEng Temp Press Density
10001   -4388.0616         25.2         25.2         25.2    104.03895   -4284.0226    587.07541    79969.316    9.0466912
Averages over the last 51 of 102 rows, steps 15100 to 20001:
PotEng Lx Ly Lz KinEng TotEng Temp Press Density
-4256.11 25.8392 25.8392 25.8392 211.84 -4044.27 1195.38 89.6077 8.39182
Loop time of 31.3371 on 1 procs for 10000 steps with 1372 atoms

variable natoms equal "count(all)"
variable teng equal "pe"
variable length equal "lx"
variable latconst equal 25.8308710982179/7
variable ecoh equal "v_teng/v_natoms"
variable T equal "temp"

print ""

print "-------------------------------"
Total energy (eV) = -4260.96929754132;
Number of atoms = 1372;
Lattice constant (Angstoms) = 25.8308710982179;
Cohesive energy (eV) = -3.10566275331;

print "All done!"
All done!
print "-------------------------------"
print ""

3.69012444260256
1184.65225070949
# ---------- Initialize Simulation ---------------------
units metal
dimension 3
boundary p p p
atom_style full
variable stable_structure file stable.txt
variable lattice_guess file lattice_guess.txt
lattice fcc 3.6
Lattice spacing in x,y,z = 3.6 3.6 3.6
region box block 0 1 0 1 0 1 units lattice
create_box 1 box
Created orthogonal box = (0 0 0) to (3.6 3.6 3.6)
create_atoms 1 box
Created 4 atoms
variable unit_cells equal "7"
replicate 7 7 7
  orthogonal box = (0 0 0) to (25.2 25.2 25.2)
  1372 atoms
  replicate CPU = 0.000613452 secs

# ---------- Define Interatomic Potential ---------------------
variable pairstyle file pairsty.txt
pair_style eam/fs
variable potential file potential.txt
variable type file type.txt
pair_coeff * * Cu1.eam.fs Cu
neighbor 2.0 bin
neigh_modify delay 10 check yes

# ---------- Define Thermo State ---------------------
variable tempset     file lat_temp.txt # K
variable presset     equal 1.0 # bars

# ---------- Run Minimization ---------------------
min_style cg
minimize 1e-25 1e-25 5000 1000
  update every 1 steps, delay 0 steps, check yes
Step Temp E_pair E_mol TotEng Press
0            0   -4496.8886            0   -4496.8886    48195.375
Loop time of 0.00929042 on 1 procs for 1 steps with 1372 atoms

Minimization stats:
  Stopping criterion = energy tolerance
  Energy initial, next-to-last, final =
  Force two-norm initial, final = 3.26473e-13 3.08016e-13
  Force max component initial, final = 1.50019e-14 1.47833e-14
  Final line search alpha, max atom move = 1 1.47833e-14
  Iterations, force evaluations = 1 2

velocity all create 1501.0 87979 dist gaussian
variable timestep1     equal 0.001

timestep 0.001
thermo 100
thermo_style custom step pe lx ly lz ke etotal temp press density
# ---------- Run Dynamics ---------------------
fix 1 all nve
run 10000
Step PotEng Lx Ly Lz KinEng TotEng Temp Press Density
1   -4496.8886         25.2         25.2         25.2     266.0007   -4230.8879         1501    65949.541    9.0466912
Averages over the last 51 of 102 rows, steps 5100 to 10001:
PotEng Lx Ly Lz KinEng TotEng Temp Press Density
-4360.56 25.2 25.2 25.2 129.714 -4230.85 731.957 86370.3 9.04669
Loop time of 31.4974 on 1 procs for 10000 steps with 1372 atoms

unfix 1
variable thermofac     equal 100.0
variable tempdamp equal 100*0.001
variable presfac     equal 1000.0
variable presdamp equal 1000*0.001

#
#-----------NPT ------------------------
#
fix     2 all npt temp 1501.0 1501.0 0.1 iso 1 1 1
run     10000
Step PotEng Lx Ly Lz KinEng TotEng Temp Press Density
10001   -4359.3974         25.2         25.2         25.2    128.54784   -4230.8496    725.37515    86219.216    9.0466912
Averages over the last 51 of 102 rows, steps 15100 to 20001:
PotEng Lx Ly Lz KinEng TotEng Temp Press Density
-4171.28 25.952 25.952 25.952 266.423 -3904.85 1503.38 113.319 8.28292
Loop time of 31.6653 on 1 procs for 10000 steps with 1372 atoms

variable natoms equal "count(all)"
variable teng equal "pe"
variable length equal "lx"
variable latconst equal 25.9219622310997/7
variable ecoh equal "v_teng/v_natoms"
variable T equal "temp"

print ""

print "-------------------------------"
Total energy (eV) = -4178.40182029164;
Number of atoms = 1372;
Lattice constant (Angstoms) = 25.9219622310997;
Cohesive energy (eV) = -3.04548237630586;

print "All done!"
All done!
print "-------------------------------"
print ""

3.70313746158567
1482.07786282049
# ---------- Initialize Simulation ---------------------
units metal
dimension 3
boundary p p p
atom_style full
variable stable_structure file stable.txt
variable lattice_guess file lattice_guess.txt
lattice fcc 3.6
Lattice spacing in x,y,z = 3.6 3.6 3.6
region box block 0 1 0 1 0 1 units lattice
create_box 1 box
Created orthogonal box = (0 0 0) to (3.6 3.6 3.6)
create_atoms 1 box
Created 4 atoms
variable unit_cells equal "7"
replicate 7 7 7
  orthogonal box = (0 0 0) to (25.2 25.2 25.2)
  1372 atoms
  replicate CPU = 0.000593779 secs

# ---------- Define Interatomic Potential ---------------------
variable pairstyle file pairsty.txt
pair_style eam/fs
variable potential file potential.txt
variable type file type.txt
pair_coeff * * Cu1.eam.fs Cu
neighbor 2.0 bin
neigh_modify delay 10 check yes

# ---------- Define Thermo State ---------------------
variable tempset     file lat_temp.txt # K
variable presset     equal 1.0 # bars

# ---------- Run Minimization ---------------------
min_style cg
minimize 1e-25 1e-25 5000 1000
  update every 1 steps, delay 0 steps, check yes
Step Temp E_pair E_mol TotEng Press
0            0   -4496.8886            0   -4496.8886    48195.375
Loop time of 0.0093378 on 1 procs for 1 steps with 1372 atoms

Minimization stats:
  Stopping criterion = energy tolerance
  Energy initial, next-to-last, final =
  Force two-norm initial, final = 3.26473e-13 3.08016e-13
  Force max component initial, final = 1.50019e-14 1.47833e-14
  Final line search alpha, max atom move = 1 1.47833e-14
  Iterations, force evaluations = 1 2

velocity all create 1.0 87979 dist gaussian
variable timestep1     equal 0.001

timestep 0.001
thermo 100
thermo_style custom step pe lx ly lz ke etotal temp press density
# ---------- Run Dynamics ---------------------
fix 1 all nve
run 10000
Step PotEng Lx Ly Lz KinEng TotEng Temp Press Density
1   -4496.8886         25.2         25.2         25.2   0.17721566   -4496.7114            1    48207.203    9.0466912
Averages over the last 51 of 102 rows, steps 5100 to 10001:
PotEng Lx Ly Lz KinEng TotEng Temp Press Density
-4496.8 25.2 25.2 25.2 0.0879366 -4496.71 0.496212 48223.8 9.04669
Loop time of 26.9685 on 1 procs for 10000 steps with 1372 atoms

unfix 1
variable thermofac     equal 100.0
variable tempdamp equal 100*0.001
variable presfac     equal 1000.0
variable presdamp equal 1000*0.001

#
#-----------NPT ------------------------
#
fix     2 all npt temp 1.0 1.0 0.1 iso 1 1 1
run     10000
Step PotEng Lx Ly Lz KinEng TotEng Temp Press Density
10001   -4496.7924         25.2         25.2         25.2  0.081084892   -4496.7113   0.45754925    48223.813    9.0466912
Averages over the last 51 of 102 rows, steps 15100 to 20001:
PotEng Lx Ly Lz KinEng TotEng Temp Press Density
-4504.26 25.4738 25.4738 25.4738 0.176817 -4504.08 0.99775 0.9918 8.75806
Loop time of 29.5049 on 1 procs for 10000 steps with 1372 atoms

variable natoms equal "count(all)"
variable teng equal "pe"
variable length equal "lx"
variable latconst equal 25.4738541382908/7
variable ecoh equal "v_teng/v_natoms"
variable T equal "temp"

print ""

print "-------------------------------"
Total energy (eV) = -4504.24839053461;
Number of atoms = 1372;
Lattice constant (Angstoms) = 25.4738541382908;
Cohesive energy (eV) = -3.28297987648295;

print "All done!"
All done!
print "-------------------------------"
print ""

3.63912201975583
0.941866260905297
# ---------- Initialize Simulation ---------------------
units metal
dimension 3
boundary p p p
atom_style full
variable stable_structure file stable.txt
variable lattice_guess file lattice_guess.txt
lattice fcc 3.6
Lattice spacing in x,y,z = 3.6 3.6 3.6
region box block 0 1 0 1 0 1 units lattice
create_box 1 box
Created orthogonal box = (0 0 0) to (3.6 3.6 3.6)
create_atoms 1 box
Created 4 atoms
variable unit_cells equal "7"
replicate 7 7 7
  orthogonal box = (0 0 0) to (25.2 25.2 25.2)
  1372 atoms
  replicate CPU = 0.000577313 secs

# ---------- Define Interatomic Potential ---------------------
variable pairstyle file pairsty.txt
pair_style eam/fs
variable potential file potential.txt
variable type file type.txt
pair_coeff * * Cu1.eam.fs Cu
neighbor 2.0 bin
neigh_modify delay 10 check yes

# ---------- Define Thermo State ---------------------
variable tempset     file lat_temp.txt # K
variable presset     equal 1.0 # bars

# ---------- Run Minimization ---------------------
min_style cg
minimize 1e-25 1e-25 5000 1000
  update every 1 steps, delay 0 steps, check yes
Step Temp E_pair E_mol TotEng Press
0            0   -4496.8886            0   -4496.8886    48195.375
Loop time of 0.00938337 on 1 procs for 1 steps with 1372 atoms

Minimization stats:
  Stopping criterion = energy tolerance
  Energy initial, next-to-last, final =
  Force two-norm initial, final = 3.26473e-13 3.08016e-13
  Force max component initial, final = 1.50019e-14 1.47833e-14
  Final line search alpha, max atom move = 1 1.47833e-14
  Iterations, force evaluations = 1 2

velocity all create 301.0 87979 dist gaussian
variable timestep1     equal 0.001

timestep 0.001
thermo 100
thermo_style custom step pe lx ly lz ke etotal temp press density
# ---------- Run Dynamics ---------------------
fix 1 all nve
run 10000
Step PotEng Lx Ly Lz KinEng TotEng Temp Press Density
1   -4496.8886         25.2         25.2         25.2    53.341913   -4443.5467          301    51755.671    9.0466912
Averages over the last 51 of 102 rows, steps 5100 to 10001:
PotEng Lx Ly Lz KinEng TotEng Temp Press Density
-4470.41 25.2 25.2 25.2 26.8717 -4443.54 151.633 56430.2 9.04669
Loop time of 29.6629 on 1 procs for 10000 steps with 1372 atoms

unfix 1
variable thermofac     equal 100.0
variable tempdamp equal 100*0.001
variable presfac     equal 1000.0
variable presdamp equal 1000*0.001

#
#-----------NPT ------------------------
#
fix     2 all npt temp 301.0 301.0 0.1 iso 1 1 1
run     10000
Step PotEng Lx Ly Lz KinEng TotEng Temp Press Density
10001   -4470.9031         25.2         25.2         25.2    27.363524   -4443.5396    154.40805    56382.776    9.0466912
Averages over the last 51 of 102 rows, steps 15100 to 20001:
PotEng Lx Ly Lz KinEng TotEng Temp Press Density
-4449.91 25.5544 25.5544 25.5544 53.2556 -4396.66 300.513 128.75 8.67545
Loop time of 32.7185 on 1 procs for 10000 steps with 1372 atoms

variable natoms equal "count(all)"
variable teng equal "pe"
variable length equal "lx"
variable latconst equal 25.5328422559011/7
variable ecoh equal "v_teng/v_natoms"
variable T equal "temp"

print ""

print "-------------------------------"
Total energy (eV) = -4451.87371988312;
Number of atoms = 1372;
Lattice constant (Angstoms) = 25.5328422559011;
Cohesive energy (eV) = -3.24480591828216;

print "All done!"
All done!
print "-------------------------------"
print ""

3.64754889370016
297.857208935391
# ---------- Initialize Simulation ---------------------
units metal
dimension 3
boundary p p p
atom_style full
variable stable_structure file stable.txt
variable lattice_guess file lattice_guess.txt
lattice fcc 3.6
Lattice spacing in x,y,z = 3.6 3.6 3.6
region box block 0 1 0 1 0 1 units lattice
create_box 1 box
Created orthogonal box = (0 0 0) to (3.6 3.6 3.6)
create_atoms 1 box
Created 4 atoms
variable unit_cells equal "7"
replicate 7 7 7
  orthogonal box = (0 0 0) to (25.2 25.2 25.2)
  1372 atoms
  replicate CPU = 0.000604284 secs

# ---------- Define Interatomic Potential ---------------------
variable pairstyle file pairsty.txt
pair_style eam/fs
variable potential file potential.txt
variable type file type.txt
pair_coeff * * Cu1.eam.fs Cu
neighbor 2.0 bin
neigh_modify delay 10 check yes

# ---------- Define Thermo State ---------------------
variable tempset     file lat_temp.txt # K
variable presset     equal 1.0 # bars

# ---------- Run Minimization ---------------------
min_style cg
minimize 1e-25 1e-25 5000 1000
  update every 1 steps, delay 0 steps, check yes
Step Temp E_pair E_mol TotEng Press
0            0   -4496.8886            0   -4496.8886    48195.375
Loop time of 0.00937066 on 1 procs for 1 steps with 1372 atoms

Minimization stats:
  Stopping criterion = energy tolerance
  Energy initial, next-to-last, final =
  Force two-norm initial, final = 3.26473e-13 3.08016e-13
  Force max component initial, final = 1.50019e-14 1.47833e-14
  Final line search alpha, max atom move = 1 1.47833e-14
  Iterations, force evaluations = 1 2

velocity all create 601.0 87979 dist gaussian
variable timestep1     equal 0.001

timestep 0.001
thermo 100
thermo_style custom step pe lx ly lz ke etotal temp press density
# ---------- Run Dynamics ---------------------
fix 1 all nve
run 10000
Step PotEng Lx Ly Lz KinEng TotEng Temp Press Density
1   -4496.8886         25.2         25.2         25.2    106.50661    -4390.382          601    55304.138    9.0466912
Averages over the last 51 of 102 rows, steps 5100 to 10001:
PotEng Lx Ly Lz KinEng TotEng Temp Press Density
-4443.66 25.2 25.2 25.2 53.2913 -4390.37 300.714 64589.1 9.04669
Loop time of 30.1136 on 1 procs for 10000 steps with 1372 atoms

unfix 1
variable thermofac     equal 100.0
variable tempdamp equal 100*0.001
variable presfac     equal 1000.0
variable presdamp equal 1000*0.001

#
#-----------NPT ------------------------
#
fix     2 all npt temp 601.0 601.0 0.1 iso 1 1 1
run     10000
Step PotEng Lx Ly Lz KinEng TotEng Temp Press Density
10001   -4442.5143         25.2         25.2         25.2    52.146868   -4390.3674    294.25655    65050.719    9.0466912
Averages over the last 51 of 102 rows, steps 15100 to 20001:
PotEng Lx Ly Lz KinEng TotEng Temp Press Density
-4391.6 25.6508 25.6508 25.6508 106.539 -4285.06 601.185 19.8296 8.57804
Loop time of 32.1937 on 1 procs for 10000 steps with 1372 atoms

variable natoms equal "count(all)"
variable teng equal "pe"
variable length equal "lx"
variable latconst equal 25.6316770319532/7
variable ecoh equal "v_teng/v_natoms"
variable T equal "temp"

print ""

print "-------------------------------"
Total energy (eV) = -4396.21640088305;
Number of atoms = 1372;
Lattice constant (Angstoms) = 25.6316770319532;
Cohesive energy (eV) = -3.20423935924421;

print "All done!"
All done!
print "-------------------------------"
print ""

3.66166814742189
595.615781528752
# ---------- Initialize Simulation ---------------------
units metal
dimension 3
boundary p p p
atom_style full
variable stable_structure file stable.txt
variable lattice_guess file lattice_guess.txt
lattice fcc 3.6
Lattice spacing in x,y,z = 3.6 3.6 3.6
region box block 0 1 0 1 0 1 units lattice
create_box 1 box
Created orthogonal box = (0 0 0) to (3.6 3.6 3.6)
create_atoms 1 box
Created 4 atoms
variable unit_cells equal "7"
replicate 7 7 7
  orthogonal box = (0 0 0) to (25.2 25.2 25.2)
  1372 atoms
  replicate CPU = 0.000581326 secs

# ---------- Define Interatomic Potential ---------------------
variable pairstyle file pairsty.txt
pair_style eam/fs
variable potential file potential.txt
variable type file type.txt
pair_coeff * * Cu1.eam.fs Cu
neighbor 2.0 bin
neigh_modify delay 10 check yes

# ---------- Define Thermo State ---------------------
variable tempset     file lat_temp.txt # K
variable presset     equal 1.0 # bars

# ---------- Run Minimization ---------------------
min_style cg
minimize 1e-25 1e-25 5000 1000
  update every 1 steps, delay 0 steps, check yes
Step Temp E_pair E_mol TotEng Press
0            0   -4496.8886            0   -4496.8886    48195.375
Loop time of 0.00947976 on 1 procs for 1 steps with 1372 atoms

Minimization stats:
  Stopping criterion = energy tolerance
  Energy initial, next-to-last, final =
  Force two-norm initial, final = 3.26473e-13 3.08016e-13
  Force max component initial, final = 1.50019e-14 1.47833e-14
  Final line search alpha, max atom move = 1 1.47833e-14
  Iterations, force evaluations = 1 2

velocity all create 901.0 87979 dist gaussian
variable timestep1     equal 0.001

timestep 0.001
thermo 100
thermo_style custom step pe lx ly lz ke etotal temp press density
# ---------- Run Dynamics ---------------------
fix 1 all nve
run 10000
Step PotEng Lx Ly Lz KinEng TotEng Temp Press Density
1   -4496.8886         25.2         25.2         25.2    159.67131   -4337.2173          901    58852.606    9.0466912
Averages over the last 51 of 102 rows, steps 5100 to 10001:
PotEng Lx Ly Lz KinEng TotEng Temp Press Density
-4417.06 25.2 25.2 25.2 79.8643 -4337.2 450.662 72318.7 9.04669
Loop time of 30.9107 on 1 procs for 10000 steps with 1372 atoms

unfix 1
variable thermofac     equal 100.0
variable tempdamp equal 100*0.001
variable presfac     equal 1000.0
variable presdamp equal 1000*0.001

#
#-----------NPT ------------------------
#
fix     2 all npt temp 901.0 901.0 0.1 iso 1 1 1
run     10000
Step PotEng Lx Ly Lz KinEng TotEng Temp Press Density
10001   -4417.9371         25.2         25.2         25.2    80.741407   -4337.1956    455.61102    72251.536    9.0466912
Averages over the last 51 of 102 rows, steps 15100 to 20001:
PotEng Lx Ly Lz KinEng TotEng Temp Press Density
-4326.9 25.7464 25.7464 25.7464 160.451 -4166.45 905.401 -140.222 8.48288
Loop time of 32.3712 on 1 procs for 10000 steps with 1372 atoms

variable natoms equal "count(all)"
variable teng equal "pe"
variable length equal "lx"
variable latconst equal 25.7646392253627/7
variable ecoh equal "v_teng/v_natoms"
variable T equal "temp"

print ""

print "-------------------------------"
Total energy (eV) = -4323.90746948633;
Number of atoms = 1372;
Lattice constant (Angstoms) = 25.7646392253627;
Cohesive energy (eV) = -3.15153605647692;

print "All done!"
All done!
print "-------------------------------"
print ""

3.68066274648039
907.017725053669
# ---------- Initialize Simulation ---------------------
units metal
dimension 3
boundary p p p
atom_style full
variable stable_structure file stable.txt
variable lattice_guess file lattice_guess.txt
lattice fcc 3.6
Lattice spacing in x,y,z = 3.6 3.6 3.6
region box block 0 1 0 1 0 1 units lattice
create_box 1 box
Created orthogonal box = (0 0 0) to (3.6 3.6 3.6)
create_atoms 1 box
Created 4 atoms
variable unit_cells equal "7"
replicate 7 7 7
  orthogonal box = (0 0 0) to (25.2 25.2 25.2)
  1372 atoms
  replicate CPU = 0.000603768 secs

# ---------- Define Interatomic Potential ---------------------
variable pairstyle file pairsty.txt
pair_style eam/fs
variable potential file potential.txt
variable type file type.txt
pair_coeff * * Cu1.eam.fs Cu
neighbor 2.0 bin
neigh_modify delay 10 check yes

# ---------- Define Thermo State ---------------------
variable tempset     file lat_temp.txt # K
variable presset     equal 1.0 # bars

# ---------- Run Minimization ---------------------
min_style cg
minimize 1e-25 1e-25 5000 1000
  update every 1 steps, delay 0 steps, check yes
Step Temp E_pair E_mol TotEng Press
0            0   -4496.8886            0   -4496.8886    48195.375
Loop time of 0.00926351 on 1 procs for 1 steps with 1372 atoms

Minimization stats:
  Stopping criterion = energy tolerance
  Energy initial, next-to-last, final =
  Force two-norm initial, final = 3.26473e-13 3.08016e-13
  Force max component initial, final = 1.50019e-14 1.47833e-14
  Final line search alpha, max atom move = 1 1.47833e-14
  Iterations, force evaluations = 1 2

velocity all create 1201.0 87979 dist gaussian
variable timestep1     equal 0.001

timestep 0.001
thermo 100
thermo_style custom step pe lx ly lz ke etotal temp press density
# ---------- Run Dynamics ---------------------
fix 1 all nve
run 10000
Step PotEng Lx Ly Lz KinEng TotEng Temp Press Density
1   -4496.8886         25.2         25.2         25.2    212.83601   -4284.0526         1201    62401.073    9.0466912
Averages over the last 51 of 102 rows, steps 5100 to 10001:
PotEng Lx Ly Lz KinEng TotEng Temp Press Density
-4388.92 25.2 25.2 25.2 104.902 -4284.02 591.947 79676.2 9.04669
Loop time of 31.4447 on 1 procs for 10000 steps with 1372 atoms

unfix 1
variable thermofac     equal 100.0
variable tempdamp equal 100*0.001
variable presfac     equal 1000.0
variable presdamp equal 1000*0.001

#
#-----------NPT ------------------------
#
fix     2 all npt temp 1201.0 1201.0 0.1 iso 1 1 1
run     10000
Step PotEng Lx Ly Lz KinEng TotEng Temp Press Density
10001   -4388.0616         25.2         25.2         25.2    104.03895   -4284.0226    587.07541    79969.316    9.0466912
Averages over the last 51 of 102 rows, steps 15100 to 20001:
PotEng Lx Ly Lz KinEng TotEng Temp Press Density
-4256.11 25.8392 25.8392 25.8392 211.84 -4044.27 1195.38 89.6077 8.39182
Loop time of 31.9544 on 1 procs for 10000 steps with 1372 atoms

variable natoms equal "count(all)"
variable teng equal "pe"
variable length equal "lx"
variable latconst equal 25.8308710982179/7
variable ecoh equal "v_teng/v_natoms"
variable T equal "temp"

print ""

print "-------------------------------"
Total energy (eV) = -4260.96929754132;
Number of atoms = 1372;
Lattice constant (Angstoms) = 25.8308710982179;
Cohesive energy (eV) = -3.10566275331;

print "All done!"
All done!
print "-------------------------------"
print ""

3.69012444260256
1184.65225070949
# ---------- Initialize Simulation ---------------------
units metal
dimension 3
boundary p p p
atom_style full
variable stable_structure file stable.txt
variable lattice_guess file lattice_guess.txt
lattice fcc 3.6
Lattice spacing in x,y,z = 3.6 3.6 3.6
region box block 0 1 0 1 0 1 units lattice
create_box 1 box
Created orthogonal box = (0 0 0) to (3.6 3.6 3.6)
create_atoms 1 box
Created 4 atoms
variable unit_cells equal "7"
replicate 7 7 7
  orthogonal box = (0 0 0) to (25.2 25.2 25.2)
  1372 atoms
  replicate CPU = 0.000630929 secs

# ---------- Define Interatomic Potential ---------------------
variable pairstyle file pairsty.txt
pair_style eam/fs
variable potential file potential.txt
variable type file type.txt
pair_coeff * * Cu1.eam.fs Cu
neighbor 2.0 bin
neigh_modify delay 10 check yes

# ---------- Define Thermo State ---------------------
variable tempset     file lat_temp.txt # K
variable presset     equal 1.0 # bars

# ---------- Run Minimization ---------------------
min_style cg
minimize 1e-25 1e-25 5000 1000
  update every 1 steps, delay 0 steps, check yes
Step Temp E_pair E_mol TotEng Press
0            0   -4496.8886            0   -4496.8886    48195.375
Loop time of 0.0093564 on 1 procs for 1 steps with 1372 atoms

Minimization stats:
  Stopping criterion = energy tolerance
  Energy initial, next-to-last, final =
  Force two-norm initial, final = 3.26473e-13 3.08016e-13
  Force max component initial, final = 1.50019e-14 1.47833e-14
  Final line search alpha, max atom move = 1 1.47833e-14
  Iterations, force evaluations = 1 2

velocity all create 1501.0 87979 dist gaussian
variable timestep1     equal 0.001

timestep 0.001
thermo 100
thermo_style custom step pe lx ly lz ke etotal temp press density
# ---------- Run Dynamics ---------------------
fix 1 all nve
run 10000
Step PotEng Lx Ly Lz KinEng TotEng Temp Press Density
1   -4496.8886         25.2         25.2         25.2     266.0007   -4230.8879         1501    65949.541    9.0466912
Averages over the last 51 of 102 rows, steps 5100 to 10001:
PotEng Lx Ly Lz KinEng TotEng Temp Press Density
-4360.56 25.2 25.2 25.2 129.714 -4230.85 731.957 86370.3 9.04669
Loop time of 30.7485 on 1 procs for 10000 steps with 1372 atoms

unfix 1
variable thermofac     equal 100.0
variable tempdamp equal 100*0.001
variable presfac     equal 1000.0
variable presdamp equal 1000*0.001

#
#-----------NPT ------------------------
#
fix     2 all npt temp 1501.0 1501.0 0.1 iso 1 1 1
run     10000
Step PotEng Lx Ly Lz KinEng TotEng Temp Press Density
10001   -4359.3974         25.2         25.2         25.2    128.54784   -4230.8496    725.37515    86219.216    9.0466912
Averages over the last 51 of 102 rows, steps 15100 to 20001:
PotEng Lx Ly Lz KinEng TotEng Temp Press Density
-4171.28 25.952 25.952 25.952 266.423 -3904.85 1503.38 113.319 8.28292
Loop time of 31.9388 on 1 procs for 10000 steps with 1372 atoms

variable natoms equal "count(all)"
variable teng equal "pe"
variable length equal "lx"
variable latconst equal 25.9219622310997/7
variable ecoh equal "v_teng/v_natoms"
variable T equal "temp"

print ""

print "-------------------------------"
Total energy (eV) = -4178.40182029164;
Number of atoms = 1372;
Lattice constant (Angstoms) = 25.9219622310997;
Cohesive energy (eV) = -3.04548237630586;

print "All done!"
All done!
print "-------------------------------"
print ""

3.70313746158567
1482.07786282049
