LAMMPS (30 Apr 2019)
#-----1 NPT at T = 300 K--------------

clear
units metal
dimension 3
boundary p p p
atom_style full

#------------Create Simulation box--------------------------------------
dimension 3
boundary	p p p
atom_style full
variable latconst file lat_const.txt
variable stable_structure file stable.txt
lattice fcc 4.07296918446211
Lattice spacing in x,y,z = 4.07297 4.07297 4.07297
region box block 0 1 0 1 0 1 units lattice
create_box 1 box
Created orthogonal box = (0 0 0) to (4.07297 4.07297 4.07297)
create_atoms 1 box
Created 4 atoms
variable lat_size file lat_size.txt
replicate 4 4 4
  orthogonal box = (0 0 0) to (16.2919 16.2919 16.2919)
  256 atoms
  replicate CPU = 0.000354985 secs

# ---------- Define Interatomic Potential ---------------------------
variable pairstyle file pairsty.txt
pair_style eam/fs
variable potential file potential.txt
variable type file type.txt
pair_coeff * * Al1.eam.fs Al
neighbor 2.0 bin
neigh_modify delay 10 check yes

# ---------- Define Thermo State ---------------------
variable tempset file temp.txt # K
variable presset     equal 1.0 # bars

# ---------- Run Minimization ---------------------
min_style cg
minimize 1e-25 1e-25 5000 1000
  update every 1 steps, delay 0 steps, check yes
Step Temp E_pair E_mol TotEng Press
0            0   -872.71104            0   -872.71104   -14895.585
Loop time of 0.00176727 on 1 procs for 1 steps with 256 atoms

Minimization stats:
  Stopping criterion = quadratic factors are zero
  Energy initial, next-to-last, final =
  Force two-norm initial, final = 4.16695e-15 4.16695e-15
  Force max component initial, final = 4.64906e-16 4.64906e-16
  Final line search alpha, max atom move = 1 4.64906e-16
  Iterations, force evaluations = 1 2

velocity all create 300 87979 dist gaussian
variable timestep     equal 0.001
variable timesteplength file timesteplength.txt

timestep 0.001
thermo 100
thermo_style  custom step lx pe ke etotal temp press density enthalpy

# ---------- Run Dynamics ---------------------

fix 1 all nve

run 1000
Step Lx PotEng KinEng TotEng Temp Press Density Enthalpy
1    16.291877   -872.71104    9.8884011   -862.82264          300   -12453.101    2.6524207   -896.43356
Averages over the last 6 of 12 rows, steps 600 to 1001:
Lx PotEng KinEng TotEng Temp Press Density Enthalpy
16.2919 -867.927 5.10562 -862.821 154.897 -7244.75 2.65242 -882.375
Loop time of 0.535022 on 1 procs for 1000 steps with 256 atoms

unfix 1
variable thermofac     equal 100.0
variable tempdamp equal 100*0.001
variable presfac     equal 1000.0
variable presdamp equal 1000*0.001

#
#-----------NPT ------------------------
#

variable delta file deltatemp.txt
fix     2 all npt temp 300 300 0.1 iso 1 1 1
#dump 1 all atom 1000 Sim_300.lammpstrj
run    1000
Step Lx PotEng KinEng TotEng Temp Press Density Enthalpy
1001    16.291877   -868.32916    5.5077819   -862.82137    167.09826   -7564.6299    2.6524207   -883.23832
Averages over the last 6 of 12 rows, steps 1600 to 2001:
Lx PotEng KinEng TotEng Temp Press Density Enthalpy
16.3011 -863.086 9.70628 -853.38 294.475 -878.391 2.64796 -855.794
Loop time of 0.563795 on 1 procs for 1000 steps with 256 atoms

unfix 2

#----------+Delta----------------
variable plustemp equal 300+100.0
fix     3 all npt temp 400 400 0.1 iso 1 1 1
#dump 2 all atom 1000 Sim_+delta.lammpstrj
run    1000
Step Lx PotEng KinEng TotEng Temp Press Density Enthalpy
2001    16.308478   -863.76926    9.4334889   -854.33577    286.19861   -3274.0375     2.644329   -863.19944
Averages over the last 6 of 12 rows, steps 2600 to 3001:
Lx PotEng KinEng TotEng Temp Press Density Enthalpy
16.3274 -859.483 12.8848 -846.598 390.906 224.075 2.63517 -845.997
Loop time of 0.557398 on 1 procs for 1000 steps with 256 atoms

unfix 3

#-----------Delta----------------
variable mintemp equal 300-100.0
fix     4 all npt temp 200 200 0.1 iso 1 1 1
#dump 3 all atom 1000 Sim_-delta.lammpstrj
run     1000
Step Lx PotEng KinEng TotEng Temp Press Density Enthalpy
3001     16.33308   -858.88983     12.35314   -846.53669    374.77666   -59.639615    2.6323978   -846.69888
Averages over the last 6 of 12 rows, steps 3600 to 4001:
Lx PotEng KinEng TotEng Temp Press Density Enthalpy
16.2587 -866.269 6.36316 -859.906 193.049 217.158 2.66872 -859.336
Loop time of 0.566914 on 1 procs for 1000 steps with 256 atoms

unfix 4
