LAMMPS (30 Apr 2019)
# Sample LAMMPS input script for thermal conductivity of solid Al (Hopefully)

units       real
variable T file temp.txt
variable    V equal vol
variable    dt equal 4.0
variable    p equal 2000     # correlation length
variable    s equal 1      # sample interval
variable    d equal $p*$s   # dump interval
variable    d equal 2000*$s
variable    d equal 2000*1

# convert from LAMMPS real units to SI

variable    kB equal 1.3806504e-23    # [J/K] Boltzmann
variable    kCal2J equal 4186.0/6.02214e23
variable    A2m equal 1.0e-10
variable    fs2s equal 1.0e-15
variable    convert equal 6.95101741241486e-21*6.95101741241486e-21/1e-15/1e-10

# setup problem

dimension    3
boundary     p p p
variable rho file lat_const.txt
lattice      fcc 4.07296918446211 orient x 1 0 0 orient y 0 1 0 orient z 0 0 1
Lattice spacing in x,y,z = 4.07297 4.07297 4.07297
region       box block 0 4 0 4 0 4
create_box   1 box
Created orthogonal box = (0 0 0) to (16.2919 16.2919 16.2919)
create_atoms 1 box
Created 256 atoms
mass         1 26.981539
pair_style	eam/fs
pair_coeff * * ./Al1.eam.fs Al
timestep     4
thermo       $d
thermo       2000

# equilibration and thermalization

velocity     all create $T 102486 mom yes rot yes dist gaussian
velocity     all create 301.0 102486 mom yes rot yes dist gaussian
fix          NVT all nvt temp $T $T 10 drag 0.2
fix          NVT all nvt temp 301.0 $T 10 drag 0.2
fix          NVT all nvt temp 301.0 301.0 10 drag 0.2
run          8000
  update every 1 steps, delay 10 steps, check yes
Step Temp E_pair E_mol TotEng Press
0          301   -872.71104            0   -643.91896    1781.0932
Loop time of 4.72359 on 1 procs for 8000 steps with 256 atoms

# thermal conductivity calculation, switch to NVE if desired

#unfix       NVT
#fix         NVE all nve

reset_timestep 0
compute      myKE all ke/atom
compute      myPE all pe/atom
compute      myStress all stress/atom NULL virial
compute      flux all heat/flux myKE myPE myStress
variable     Jx equal c_flux[1]/vol
variable     Jy equal c_flux[2]/vol
variable     Jz equal c_flux[3]/vol
fix          JJ all ave/correlate $s $p $d              c_flux[1] c_flux[2] c_flux[3] type auto file J0Jt.dat ave running
fix          JJ all ave/correlate 1 $p $d              c_flux[1] c_flux[2] c_flux[3] type auto file J0Jt.dat ave running
fix          JJ all ave/correlate 1 2000 $d              c_flux[1] c_flux[2] c_flux[3] type auto file J0Jt.dat ave running
fix          JJ all ave/correlate 1 2000 2000              c_flux[1] c_flux[2] c_flux[3] type auto file J0Jt.dat ave running
variable     scale equal 4.83166430676946e-16/1.3806504e-23/301.0/301.0/4324.2754176841*1*4
variable     k11 equal trap(f_JJ[3])*0.357294789703752
variable     k22 equal trap(f_JJ[4])*0.357294789703752
variable     k33 equal trap(f_JJ[5])*0.357294789703752
thermo_style custom step temp v_Jx v_Jy v_Jz v_k11 v_k22 v_k33
run          100000
Step Temp v_Jx v_Jy v_Jz v_k11 v_k22 v_k33
0    273.66612 1.7069577e-05 6.5471455e-06 2.6591903e-05 0.00097334973 0.00014319484 0.0023622302
Averages over the last 26 of 51 rows, steps 50000 to 100000:
Temp v_Jx v_Jy v_Jz v_k11 v_k22 v_k33
302.196 -6.08783e-07 7.86226e-06 2.88742e-06 0.281811 0.250592 0.257972
Loop time of 83.6011 on 1 procs for 100000 steps with 256 atoms

variable     k equal (v_k11+v_k22+v_k33)/3.0
variable     ndens equal count(all)/vol
average conductivity: 0.260390640372883[W/mK] @ 301.0 K, 0.059200669539477 /A\^3
print $k file Therm_cond.txt
print 0.260390640372883 file Therm_cond.txt
0.260390640372883
