LAMMPS (30 Apr 2019)
# Compute elastic constant tensor for a crystal at finite temperature
#
# WARNING: This script attempts to measure small differences in
# statistical averages generated by finite temperature MD simulations.
# This creates many more opportunities for errors to occur, compared
# to the zero temperature version provided in examples/ELASTIC.
# Hence, it is always a good idea to start with the zero temperature
# calculation, before attempting to use this script.
#
# Written by Aidan Thompson (Sandia, athomps@sandia.gov)
#
#  This script uses the following three include files.
#
#   init.mod      (must be modified for different crystal structures)
# 	       	  Define units, MD parameters, deformation parameters,
#		  and initial configuration of the atoms and simulation cell.
#
#
#   potential.mod    (must be modified for different pair styles)
# 		     Define pair style and other attributes
#		     not stored in restart file
#
#
#   displace.mod    (displace.mod should not need to be modified)
# 		    Perform positive and negative box displacements
# 		    It uses the resultant changes
#		    in stress to compute one
# 		    row of the elastic stiffness tensor
#
#		    Inputs variables:
#		    	   dir = the Voigt deformation component
#		    		    (1,2,3,4,5,6)
#		    Global constants:
#       	    	   up = the deformation magnitude (strain units)
#       		   cfac = conversion from LAMMPS pressure units to
#               	   output units for elastic constants
#
#
#  To run this on a different system, it should only be necessary to
#  modify the files init.mod and potential.mod. In order to calculate
#  the elastic constants correctly, care must be taken to specify
#  the correct units in init.mod (units, cfac and cunits). It is also
#  important to verify that the MD sampling of stress components
#  is generating accurate statistical averages.
#  One indication of this is that the elastic constants are insensitive
#  check for finite size effects.
#

include ./LAMMPS_scripts/Bulk_finite/init.mod
# NOTE: This script can be modified for different atomic structures,
# units, etc. See in.elastic for more info.
#

# Define the finite deformation size. Try several values of this
# variable to verify that results do not depend on it.
variable up equal 2.0e-2

# metal units, elastic constants in GPa
units		metal
variable cfac equal 1.0e-4
variable cunits string GPa

# Define MD parameters
variable nevery equal 10                  # sampling interval
variable nrepeat equal 10                 # number of samples
variable nfreq equal 10*10
variable nthermo equal 100
variable nequil equal 10*100
variable nrun equal 3*100
variable temp file temp.txt               # temperature of initial sample
variable timestep equal 0.001             # timestep
variable mass1 equal 26.981539            # mass
variable adiabatic equal 0                # adiabatic (1) or isothermal (2)
variable tdamp equal 0.01                 # time constant for thermostat
variable seed equal 123457                # seed for thermostat

# generate the box and atom positions using a fcc lattice
variable a equal 4.04525
dimension 3
boundary	p p p
atom_style full
variable latconst file lat_const.txt
variable stable_structure file stable.txt
lattice fcc 3.70313746158567
Lattice spacing in x,y,z = 3.70314 3.70314 3.70314
region  box block 0 1 0 1 0 1 units lattice
create_box  1 box
Created orthogonal box = (0 0 0) to (3.70314 3.70314 3.70314)
create_atoms 1 box
Created 4 atoms
replicate 7 7 7
  orthogonal box = (0 0 0) to (25.922 25.922 25.922)
  1372 atoms
  replicate CPU = 0.000646003 secs

mass 1 26.981539
velocity	all create 1482.07786282049 87287

# Compute initial state

variable thermostat equal 1
include ./LAMMPS_scripts/Bulk_finite/potential.mod
# NOTE: This script can be modified for different pair styles
# See in.elastic for more info.

reset_timestep 0

# Choose potential
variable pairstyle file pairsty.txt
pair_style eam/fs
variable potential file potential.txt
variable type file type.txt
pair_coeff * * Cu1.eam.fs Cu

# Setup neighbor style
neighbor 1.0 nsq
neigh_modify once no every 1 delay 0 check yes

# Setup output

fix avp all ave/time  10 10 100 c_thermo_press mode vector
thermo		100
thermo_style custom step temp pe press f_avp[1] f_avp[2] f_avp[3] f_avp[4] f_avp[5] f_avp[6]
thermo_modify norm no

# Setup MD

timestep 0.001
fix 4 all nve
fix 5 all langevin 1482.07786282049 1482.07786282049 0.01 123457

run 1000
  update every 1 steps, delay 0 steps, check yes
Step Temp PotEng Press f_avp[1] f_avp[2] f_avp[3] f_avp[4] f_avp[5] f_avp[6]
0    3490.5392   -4484.5945    -30502.28            0            0            0            0            0            0
Averages over the last 6 of 11 rows, steps 500 to 1000:
Temp PotEng Press f_avp[1] f_avp[2] f_avp[3] f_avp[4] f_avp[5] f_avp[6]
1488.61 -4197.63 435.347 -433.452 -90.1099 590.076 -80.6677 229.965 -43.5164
Loop time of 3.26375 on 1 procs for 1000 steps with 1372 atoms

variable thermostat equal 1

print 1
1

include ./LAMMPS_scripts/Bulk_finite/potential.mod
# NOTE: This script can be modified for different pair styles
# See in.elastic for more info.

reset_timestep 0

# Choose potential
variable pairstyle file pairsty.txt
pair_style eam/fs
variable potential file potential.txt
variable type file type.txt
pair_coeff * * Cu1.eam.fs Cu

# Setup neighbor style
neighbor 1.0 nsq
neigh_modify once no every 1 delay 0 check yes

# Setup output

fix avp all ave/time  10 10 100 c_thermo_press mode vector
thermo		100
thermo_style custom step temp pe press f_avp[1] f_avp[2] f_avp[3] f_avp[4] f_avp[5] f_avp[6]
thermo_modify norm no

# Setup MD

timestep 0.001
fix 4 all nve
fix 5 all langevin 1482.07786282049 1482.07786282049 0.01 123457

run 300
Step Temp PotEng Press f_avp[1] f_avp[2] f_avp[3] f_avp[4] f_avp[5] f_avp[6]
0     1417.207   -4194.4991    -375.7396            0            0            0            0            0            0
Loop time of 1.0395 on 1 procs for 300 steps with 1372 atoms

variable pxx0 equal f_avp[1]
variable pyy0 equal f_avp[2]
variable pzz0 equal f_avp[3]
variable pxy0 equal f_avp[4]
variable pxz0 equal f_avp[5]
variable pyz0 equal f_avp[6]

variable tmp equal lx
variable lx0 equal 25.9219622310997
variable tmp equal ly
variable ly0 equal 25.9219622310997
variable tmp equal lz
variable lz0 equal 25.9219622310997

# These formulas define the derivatives w.r.t. strain components
# Constants uses $, variables use v_
variable d1 equal -(v_pxx1--62.8186953065482)/(v_delta/v_len0)*0.0001
variable d2 equal -(v_pyy1-5472.84272627523)/(v_delta/v_len0)*0.0001
variable d3 equal -(v_pzz1-1878.35593948771)/(v_delta/v_len0)*0.0001
variable d4 equal -(v_pyz1-1041.2024770279)/(v_delta/v_len0)*0.0001
variable d5 equal -(v_pxz1-1462.77080404641)/(v_delta/v_len0)*0.0001
variable d6 equal -(v_pxy1--650.319542961762)/(v_delta/v_len0)*0.0001

# Write restart
write_restart ./Outputs/lammps_out/Bulk_finite/restart.equil

# uxx Perturbation

variable dir equal 1
include ./LAMMPS_scripts/Bulk_finite/displace.mod
# NOTE: This script should not need to be
# modified. See in.elastic for more info.
#
# Find which reference length to use

variable len0 equal 25.9219622310997

# Reset box and simulation parameters

clear
box tilt large
read_restart ./Outputs/lammps_out/Bulk_finite/restart.equil
  restoring atom style full from restart
  orthogonal box = (0 0 0) to (25.922 25.922 25.922)
  pair style eam/fs stores no restart info
  1372 atoms
  read_restart CPU = 0.0005726 secs
include ./LAMMPS_scripts/Bulk_finite/potential.mod
# NOTE: This script can be modified for different pair styles
# See in.elastic for more info.

reset_timestep 0

# Choose potential
variable pairstyle file pairsty.txt
pair_style eam/fs
variable potential file potential.txt
variable type file type.txt
pair_coeff * * Cu1.eam.fs Cu

# Setup neighbor style
neighbor 1.0 nsq
neigh_modify once no every 1 delay 0 check yes

# Setup output

fix avp all ave/time  10 10 100 c_thermo_press mode vector
thermo		100
thermo_style custom step temp pe press f_avp[1] f_avp[2] f_avp[3] f_avp[4] f_avp[5] f_avp[6]
thermo_modify norm no

# Setup MD

timestep 0.001
fix 4 all nve
fix 5 all langevin 1482.07786282049 1482.07786282049 0.01 123457

# Negative deformation

variable delta equal -0.02*25.9219622310997
variable deltaxy equal -0.02*xy
variable deltaxz equal -0.02*xz
variable deltayz equal -0.02*yz
change_box all triclinic
  triclinic box = (0 0 0) to (25.922 25.922 25.922) with tilt (0 0 0)
change_box all x delta 0 -0.518439244621994 xy delta -0 xz delta -0 remap units box
  triclinic box = (0 0 0) to (25.4035 25.922 25.922) with tilt (0 0 0)
  triclinic box = (0 0 0) to (25.4035 25.922 25.922) with tilt (0 0 0)
  triclinic box = (0 0 0) to (25.4035 25.922 25.922) with tilt (0 0 0)

# Run MD

run 1000
  update every 1 steps, delay 0 steps, check yes
Step Temp PotEng Press f_avp[1] f_avp[2] f_avp[3] f_avp[4] f_avp[5] f_avp[6]
0    1428.6257   -4180.2267    28401.469            0            0            0            0            0            0
Averages over the last 6 of 11 rows, steps 500 to 1000:
Temp PotEng Press f_avp[1] f_avp[2] f_avp[3] f_avp[4] f_avp[5] f_avp[6]
1496.02 -4147.38 34015.7 34764.9 35678.1 32864.4 -232.821 62.5103 -1492.12
Loop time of 3.63618 on 1 procs for 1000 steps with 1372 atoms

include ./LAMMPS_scripts/Bulk_finite/potential.mod
# NOTE: This script can be modified for different pair styles
# See in.elastic for more info.

reset_timestep 0

# Choose potential
variable pairstyle file pairsty.txt
pair_style eam/fs
variable potential file potential.txt
variable type file type.txt
pair_coeff * * Cu1.eam.fs Cu

# Setup neighbor style
neighbor 1.0 nsq
neigh_modify once no every 1 delay 0 check yes

# Setup output

fix avp all ave/time  10 10 100 c_thermo_press mode vector
thermo		100
thermo_style custom step temp pe press f_avp[1] f_avp[2] f_avp[3] f_avp[4] f_avp[5] f_avp[6]
thermo_modify norm no

# Setup MD

timestep 0.001
fix 4 all nve
fix 5 all langevin 1482.07786282049 1482.07786282049 0.01 123457

run 300
Step Temp PotEng Press f_avp[1] f_avp[2] f_avp[3] f_avp[4] f_avp[5] f_avp[6]
0    1419.0904   -4169.4419    29762.839            0            0            0            0            0            0
Loop time of 1.0708 on 1 procs for 300 steps with 1372 atoms

# Obtain new stress tensor

variable pxx1 equal f_avp[1]
variable pyy1 equal f_avp[2]
variable pzz1 equal f_avp[3]
variable pxy1 equal f_avp[4]
variable pxz1 equal f_avp[5]
variable pyz1 equal f_avp[6]

# Compute elastic constant from pressure tensor

variable C1neg equal 173.00238792165
variable C2neg equal 147.934876705454
variable C3neg equal 157.179112310786
variable C4neg equal -2.26081030917039
variable C5neg equal -3.985262568489
variable C6neg equal 6.81033876430294

# Reset box and simulation parameters

clear
box tilt large
read_restart ./Outputs/lammps_out/Bulk_finite/restart.equil
  restoring atom style full from restart
  orthogonal box = (0 0 0) to (25.922 25.922 25.922)
  pair style eam/fs stores no restart info
  1372 atoms
  read_restart CPU = 0.000779486 secs
include ./LAMMPS_scripts/Bulk_finite/potential.mod
# NOTE: This script can be modified for different pair styles
# See in.elastic for more info.

reset_timestep 0

# Choose potential
variable pairstyle file pairsty.txt
pair_style eam/fs
variable potential file potential.txt
variable type file type.txt
pair_coeff * * Cu1.eam.fs Cu

# Setup neighbor style
neighbor 1.0 nsq
neigh_modify once no every 1 delay 0 check yes

# Setup output

fix avp all ave/time  10 10 100 c_thermo_press mode vector
thermo		100
thermo_style custom step temp pe press f_avp[1] f_avp[2] f_avp[3] f_avp[4] f_avp[5] f_avp[6]
thermo_modify norm no

# Setup MD

timestep 0.001
fix 4 all nve
fix 5 all langevin 1482.07786282049 1482.07786282049 0.01 123457

# Positive deformation

variable delta equal 0.02*25.9219622310997
variable deltaxy equal 0.02*xy
variable deltaxz equal 0.02*xz
variable deltayz equal 0.02*yz
change_box all triclinic
  triclinic box = (0 0 0) to (25.922 25.922 25.922) with tilt (0 0 0)
change_box all x delta 0 0.518439244621994 xy delta 0 xz delta 0 remap units box
  triclinic box = (0 0 0) to (26.4404 25.922 25.922) with tilt (0 0 0)
  triclinic box = (0 0 0) to (26.4404 25.922 25.922) with tilt (0 0 0)
  triclinic box = (0 0 0) to (26.4404 25.922 25.922) with tilt (0 0 0)

# Run MD

run 1000
  update every 1 steps, delay 0 steps, check yes
Step Temp PotEng Press f_avp[1] f_avp[2] f_avp[3] f_avp[4] f_avp[5] f_avp[6]
0    1428.6257   -4173.3894   -23133.942            0            0            0            0            0            0
Averages over the last 6 of 11 rows, steps 500 to 1000:
Temp PotEng Press f_avp[1] f_avp[2] f_avp[3] f_avp[4] f_avp[5] f_avp[6]
1494.91 -4114.19 -8858.49 -11835.3 -5808.87 -7429.16 -700.788 -12.4542 -1849.37
Loop time of 3.48737 on 1 procs for 1000 steps with 1372 atoms

include ./LAMMPS_scripts/Bulk_finite/potential.mod
# NOTE: This script can be modified for different pair styles
# See in.elastic for more info.

reset_timestep 0

# Choose potential
variable pairstyle file pairsty.txt
pair_style eam/fs
variable potential file potential.txt
variable type file type.txt
pair_coeff * * Cu1.eam.fs Cu

# Setup neighbor style
neighbor 1.0 nsq
neigh_modify once no every 1 delay 0 check yes

# Setup output

fix avp all ave/time  10 10 100 c_thermo_press mode vector
thermo		100
thermo_style custom step temp pe press f_avp[1] f_avp[2] f_avp[3] f_avp[4] f_avp[5] f_avp[6]
thermo_modify norm no

# Setup MD

timestep 0.001
fix 4 all nve
fix 5 all langevin 1482.07786282049 1482.07786282049 0.01 123457

run 300
Step Temp PotEng Press f_avp[1] f_avp[2] f_avp[3] f_avp[4] f_avp[5] f_avp[6]
0    1417.5918   -4134.0179   -13512.852            0            0            0            0            0            0
Loop time of 1.02104 on 1 procs for 300 steps with 1372 atoms

# Obtain new stress tensor

variable tmp equal pe
variable e1 equal -4099.57517832065
variable tmp equal press
variable p1 equal -7364.07962315629
variable tmp equal pxx
variable pxx1 equal -9438.38614164939
variable tmp equal pyy
variable pyy1 equal -6102.7356015209
variable tmp equal pzz
variable pzz1 equal -6551.11712629851
variable tmp equal pxy
variable pxy1 equal 1026.13318601431
variable tmp equal pxz
variable pxz1 equal 46.4827652432703
variable tmp equal pyz
variable pyz1 equal 174.790714829504

# Compute elastic constant from pressure tensor

variable C1pos equal 46.8778372317142
variable C2pos equal 57.8778916389807
variable C3pos equal 42.1473653289311
variable C4pos equal 4.33205881099198
variable C5pos equal 7.0814401940157
variable C6pos equal -8.38226364488036

# Combine positive and negative

variable C11 equal 0.5*(173.00238792165+46.8778372317142)
variable C21 equal 0.5*(147.934876705454+57.8778916389807)
variable C31 equal 0.5*(157.179112310786+42.1473653289311)
variable C41 equal 0.5*(-2.26081030917039+4.33205881099198)
variable C51 equal 0.5*(-3.985262568489+7.0814401940157)
variable C61 equal 0.5*(6.81033876430294+-8.38226364488036)

# Delete dir to make sure it is not reused

variable dir delete

# uyy Perturbation

variable dir equal 2
include ./LAMMPS_scripts/Bulk_finite/displace.mod
# NOTE: This script should not need to be
# modified. See in.elastic for more info.
#
# Find which reference length to use

variable len0 equal 25.9219622310997

# Reset box and simulation parameters

clear
box tilt large
read_restart ./Outputs/lammps_out/Bulk_finite/restart.equil
  restoring atom style full from restart
  orthogonal box = (0 0 0) to (25.922 25.922 25.922)
  pair style eam/fs stores no restart info
  1372 atoms
  read_restart CPU = 0.000759928 secs
include ./LAMMPS_scripts/Bulk_finite/potential.mod
# NOTE: This script can be modified for different pair styles
# See in.elastic for more info.

reset_timestep 0

# Choose potential
variable pairstyle file pairsty.txt
pair_style eam/fs
variable potential file potential.txt
variable type file type.txt
pair_coeff * * Cu1.eam.fs Cu

# Setup neighbor style
neighbor 1.0 nsq
neigh_modify once no every 1 delay 0 check yes

# Setup output

fix avp all ave/time  10 10 100 c_thermo_press mode vector
thermo		100
thermo_style custom step temp pe press f_avp[1] f_avp[2] f_avp[3] f_avp[4] f_avp[5] f_avp[6]
thermo_modify norm no

# Setup MD

timestep 0.001
fix 4 all nve
fix 5 all langevin 1482.07786282049 1482.07786282049 0.01 123457

# Negative deformation

variable delta equal -0.02*25.9219622310997
variable deltaxy equal -0.02*xy
variable deltaxz equal -0.02*xz
variable deltayz equal -0.02*yz
change_box all triclinic
  triclinic box = (0 0 0) to (25.922 25.922 25.922) with tilt (0 0 0)
change_box all y delta 0 -0.518439244621994 yz delta -0 remap units box
  triclinic box = (0 0 0) to (25.922 25.4035 25.922) with tilt (0 0 0)
  triclinic box = (0 0 0) to (25.922 25.4035 25.922) with tilt (0 0 0)

# Run MD

run 1000
  update every 1 steps, delay 0 steps, check yes
Step Temp PotEng Press f_avp[1] f_avp[2] f_avp[3] f_avp[4] f_avp[5] f_avp[6]
0    1428.6257   -4179.0555    28401.832            0            0            0            0            0            0
Averages over the last 6 of 11 rows, steps 500 to 1000:
Temp PotEng Press f_avp[1] f_avp[2] f_avp[3] f_avp[4] f_avp[5] f_avp[6]
1495.49 -4147.38 34016.2 32107.5 38029.2 33080.5 -228.92 -61.6765 -1753.07
Loop time of 3.6727 on 1 procs for 1000 steps with 1372 atoms

include ./LAMMPS_scripts/Bulk_finite/potential.mod
# NOTE: This script can be modified for different pair styles
# See in.elastic for more info.

reset_timestep 0

# Choose potential
variable pairstyle file pairsty.txt
pair_style eam/fs
variable potential file potential.txt
variable type file type.txt
pair_coeff * * Cu1.eam.fs Cu

# Setup neighbor style
neighbor 1.0 nsq
neigh_modify once no every 1 delay 0 check yes

# Setup output

fix avp all ave/time  10 10 100 c_thermo_press mode vector
thermo		100
thermo_style custom step temp pe press f_avp[1] f_avp[2] f_avp[3] f_avp[4] f_avp[5] f_avp[6]
thermo_modify norm no

# Setup MD

timestep 0.001
fix 4 all nve
fix 5 all langevin 1482.07786282049 1482.07786282049 0.01 123457

run 300
Step Temp PotEng Press f_avp[1] f_avp[2] f_avp[3] f_avp[4] f_avp[5] f_avp[6]
0    1418.9669   -4169.7289    29609.562            0            0            0            0            0            0
Loop time of 1.05869 on 1 procs for 300 steps with 1372 atoms

# Obtain new stress tensor

variable pxx1 equal f_avp[1]
variable pyy1 equal f_avp[2]
variable pzz1 equal f_avp[3]
variable pxy1 equal f_avp[4]
variable pxz1 equal f_avp[5]
variable pyz1 equal f_avp[6]

# Compute elastic constant from pressure tensor

variable C1neg equal 161.572579258803
variable C2neg equal 152.489963783776
variable C3neg equal 156.355886943816
variable C4neg equal -2.50097519774907
variable C5neg equal -4.45397100822657
variable C6neg equal 7.18565663366843

# Reset box and simulation parameters

clear
box tilt large
read_restart ./Outputs/lammps_out/Bulk_finite/restart.equil
  restoring atom style full from restart
  orthogonal box = (0 0 0) to (25.922 25.922 25.922)
  pair style eam/fs stores no restart info
  1372 atoms
  read_restart CPU = 0.000564471 secs
include ./LAMMPS_scripts/Bulk_finite/potential.mod
# NOTE: This script can be modified for different pair styles
# See in.elastic for more info.

reset_timestep 0

# Choose potential
variable pairstyle file pairsty.txt
pair_style eam/fs
variable potential file potential.txt
variable type file type.txt
pair_coeff * * Cu1.eam.fs Cu

# Setup neighbor style
neighbor 1.0 nsq
neigh_modify once no every 1 delay 0 check yes

# Setup output

fix avp all ave/time  10 10 100 c_thermo_press mode vector
thermo		100
thermo_style custom step temp pe press f_avp[1] f_avp[2] f_avp[3] f_avp[4] f_avp[5] f_avp[6]
thermo_modify norm no

# Setup MD

timestep 0.001
fix 4 all nve
fix 5 all langevin 1482.07786282049 1482.07786282049 0.01 123457

# Positive deformation

variable delta equal 0.02*25.9219622310997
variable deltaxy equal 0.02*xy
variable deltaxz equal 0.02*xz
variable deltayz equal 0.02*yz
change_box all triclinic
  triclinic box = (0 0 0) to (25.922 25.922 25.922) with tilt (0 0 0)
change_box all y delta 0 0.518439244621994 yz delta 0 remap units box
  triclinic box = (0 0 0) to (25.922 26.4404 25.922) with tilt (0 0 0)
  triclinic box = (0 0 0) to (25.922 26.4404 25.922) with tilt (0 0 0)

# Run MD

run 1000
  update every 1 steps, delay 0 steps, check yes
Step Temp PotEng Press f_avp[1] f_avp[2] f_avp[3] f_avp[4] f_avp[5] f_avp[6]
0    1428.6257    -4174.566   -23060.004            0            0            0            0            0            0
Averages over the last 6 of 11 rows, steps 500 to 1000:
Temp PotEng Press f_avp[1] f_avp[2] f_avp[3] f_avp[4] f_avp[5] f_avp[6]
1495.36 -4114.48 -8888.5 -8733.2 -8744.64 -7670.74 -752.663 149.847 -1585.01
Loop time of 3.46191 on 1 procs for 1000 steps with 1372 atoms

include ./LAMMPS_scripts/Bulk_finite/potential.mod
# NOTE: This script can be modified for different pair styles
# See in.elastic for more info.

reset_timestep 0

# Choose potential
variable pairstyle file pairsty.txt
pair_style eam/fs
variable potential file potential.txt
variable type file type.txt
pair_coeff * * Cu1.eam.fs Cu

# Setup neighbor style
neighbor 1.0 nsq
neigh_modify once no every 1 delay 0 check yes

# Setup output

fix avp all ave/time  10 10 100 c_thermo_press mode vector
thermo		100
thermo_style custom step temp pe press f_avp[1] f_avp[2] f_avp[3] f_avp[4] f_avp[5] f_avp[6]
thermo_modify norm no

# Setup MD

timestep 0.001
fix 4 all nve
fix 5 all langevin 1482.07786282049 1482.07786282049 0.01 123457

run 300
Step Temp PotEng Press f_avp[1] f_avp[2] f_avp[3] f_avp[4] f_avp[5] f_avp[6]
0    1417.3655   -4134.1534   -13473.979            0            0            0            0            0            0
Loop time of 1.04826 on 1 procs for 300 steps with 1372 atoms

# Obtain new stress tensor

variable tmp equal pe
variable e1 equal -4099.50450951511
variable tmp equal press
variable p1 equal -7188.42579602279
variable tmp equal pxx
variable pxx1 equal -7503.40560656333
variable tmp equal pyy
variable pyy1 equal -7342.82168431687
variable tmp equal pzz
variable pzz1 equal -6719.05009718808
variable tmp equal pxy
variable pxy1 equal 933.743580681067
variable tmp equal pxz
variable pxz1 equal 136.712821244154
variable tmp equal pyz
variable pyz1 equal 129.536579027313

# Compute elastic constant from pressure tensor

variable C1pos equal 37.2029345562839
variable C2pos equal 64.0783220529605
variable C3pos equal 42.987030183379
variable C4pos equal 4.55832949000294
variable C5pos equal 6.63028991401128
variable C6pos equal -7.92031561821415

# Combine positive and negative

variable C12 equal 0.5*(161.572579258803+37.2029345562839)
variable C22 equal 0.5*(152.489963783776+64.0783220529605)
variable C32 equal 0.5*(156.355886943816+42.987030183379)
variable C42 equal 0.5*(-2.50097519774907+4.55832949000294)
variable C52 equal 0.5*(-4.45397100822657+6.63028991401128)
variable C62 equal 0.5*(7.18565663366843+-7.92031561821415)

# Delete dir to make sure it is not reused

variable dir delete

# uzz Perturbation

variable dir equal 3
include ./LAMMPS_scripts/Bulk_finite/displace.mod
# NOTE: This script should not need to be
# modified. See in.elastic for more info.
#
# Find which reference length to use

variable len0 equal 25.9219622310997

# Reset box and simulation parameters

clear
box tilt large
read_restart ./Outputs/lammps_out/Bulk_finite/restart.equil
  restoring atom style full from restart
  orthogonal box = (0 0 0) to (25.922 25.922 25.922)
  pair style eam/fs stores no restart info
  1372 atoms
  read_restart CPU = 0.000689335 secs
include ./LAMMPS_scripts/Bulk_finite/potential.mod
# NOTE: This script can be modified for different pair styles
# See in.elastic for more info.

reset_timestep 0

# Choose potential
variable pairstyle file pairsty.txt
pair_style eam/fs
variable potential file potential.txt
variable type file type.txt
pair_coeff * * Cu1.eam.fs Cu

# Setup neighbor style
neighbor 1.0 nsq
neigh_modify once no every 1 delay 0 check yes

# Setup output

fix avp all ave/time  10 10 100 c_thermo_press mode vector
thermo		100
thermo_style custom step temp pe press f_avp[1] f_avp[2] f_avp[3] f_avp[4] f_avp[5] f_avp[6]
thermo_modify norm no

# Setup MD

timestep 0.001
fix 4 all nve
fix 5 all langevin 1482.07786282049 1482.07786282049 0.01 123457

# Negative deformation

variable delta equal -0.02*25.9219622310997
variable deltaxy equal -0.02*xy
variable deltaxz equal -0.02*xz
variable deltayz equal -0.02*yz
change_box all triclinic
  triclinic box = (0 0 0) to (25.922 25.922 25.922) with tilt (0 0 0)
change_box all z delta 0 -0.518439244621994 remap units box
  triclinic box = (0 0 0) to (25.922 25.922 25.4035) with tilt (0 0 0)

# Run MD

run 1000
  update every 1 steps, delay 0 steps, check yes
Step Temp PotEng Press f_avp[1] f_avp[2] f_avp[3] f_avp[4] f_avp[5] f_avp[6]
0    1428.6257   -4179.9421    28185.095            0            0            0            0            0            0
Averages over the last 6 of 11 rows, steps 500 to 1000:
Temp PotEng Press f_avp[1] f_avp[2] f_avp[3] f_avp[4] f_avp[5] f_avp[6]
1495.84 -4147.7 33949.1 31845.2 35449.6 35824 -582.004 126.126 -1739.71
Loop time of 3.60624 on 1 procs for 1000 steps with 1372 atoms

include ./LAMMPS_scripts/Bulk_finite/potential.mod
# NOTE: This script can be modified for different pair styles
# See in.elastic for more info.

reset_timestep 0

# Choose potential
variable pairstyle file pairsty.txt
pair_style eam/fs
variable potential file potential.txt
variable type file type.txt
pair_coeff * * Cu1.eam.fs Cu

# Setup neighbor style
neighbor 1.0 nsq
neigh_modify once no every 1 delay 0 check yes

# Setup output

fix avp all ave/time  10 10 100 c_thermo_press mode vector
thermo		100
thermo_style custom step temp pe press f_avp[1] f_avp[2] f_avp[3] f_avp[4] f_avp[5] f_avp[6]
thermo_modify norm no

# Setup MD

timestep 0.001
fix 4 all nve
fix 5 all langevin 1482.07786282049 1482.07786282049 0.01 123457

run 300
Step Temp PotEng Press f_avp[1] f_avp[2] f_avp[3] f_avp[4] f_avp[5] f_avp[6]
0    1418.4597   -4170.0634    29624.512            0            0            0            0            0            0
Loop time of 1.05323 on 1 procs for 300 steps with 1372 atoms

# Obtain new stress tensor

variable pxx1 equal f_avp[1]
variable pyy1 equal f_avp[2]
variable pzz1 equal f_avp[3]
variable pxy1 equal f_avp[4]
variable pxz1 equal f_avp[5]
variable pyz1 equal f_avp[6]

# Compute elastic constant from pressure tensor

variable C1neg equal 160.807748955958
variable C2neg equal 144.828118073072
variable C3neg equal 165.310164066543
variable C4neg equal -3.87385034654769
variable C5neg equal -3.07249745245029
variable C6neg equal 5.48517258167135

# Reset box and simulation parameters

clear
box tilt large
read_restart ./Outputs/lammps_out/Bulk_finite/restart.equil
  restoring atom style full from restart
  orthogonal box = (0 0 0) to (25.922 25.922 25.922)
  pair style eam/fs stores no restart info
  1372 atoms
  read_restart CPU = 0.00103951 secs
include ./LAMMPS_scripts/Bulk_finite/potential.mod
# NOTE: This script can be modified for different pair styles
# See in.elastic for more info.

reset_timestep 0

# Choose potential
variable pairstyle file pairsty.txt
pair_style eam/fs
variable potential file potential.txt
variable type file type.txt
pair_coeff * * Cu1.eam.fs Cu

# Setup neighbor style
neighbor 1.0 nsq
neigh_modify once no every 1 delay 0 check yes

# Setup output

fix avp all ave/time  10 10 100 c_thermo_press mode vector
thermo		100
thermo_style custom step temp pe press f_avp[1] f_avp[2] f_avp[3] f_avp[4] f_avp[5] f_avp[6]
thermo_modify norm no

# Setup MD

timestep 0.001
fix 4 all nve
fix 5 all langevin 1482.07786282049 1482.07786282049 0.01 123457

# Positive deformation

variable delta equal 0.02*25.9219622310997
variable deltaxy equal 0.02*xy
variable deltaxz equal 0.02*xz
variable deltayz equal 0.02*yz
change_box all triclinic
  triclinic box = (0 0 0) to (25.922 25.922 25.922) with tilt (0 0 0)
change_box all z delta 0 0.518439244621994 remap units box
  triclinic box = (0 0 0) to (25.922 25.922 26.4404) with tilt (0 0 0)

# Run MD

run 1000
  update every 1 steps, delay 0 steps, check yes
Step Temp PotEng Press f_avp[1] f_avp[2] f_avp[3] f_avp[4] f_avp[5] f_avp[6]
0    1428.6257    -4173.778   -22938.273            0            0            0            0            0            0
Averages over the last 6 of 11 rows, steps 500 to 1000:
Temp PotEng Press f_avp[1] f_avp[2] f_avp[3] f_avp[4] f_avp[5] f_avp[6]
1495.08 -4114.02 -8799.74 -8391.21 -5670.82 -10913.4 -420.107 -118.698 -1556.81
Loop time of 3.46221 on 1 procs for 1000 steps with 1372 atoms

include ./LAMMPS_scripts/Bulk_finite/potential.mod
# NOTE: This script can be modified for different pair styles
# See in.elastic for more info.

reset_timestep 0

# Choose potential
variable pairstyle file pairsty.txt
pair_style eam/fs
variable potential file potential.txt
variable type file type.txt
pair_coeff * * Cu1.eam.fs Cu

# Setup neighbor style
neighbor 1.0 nsq
neigh_modify once no every 1 delay 0 check yes

# Setup output

fix avp all ave/time  10 10 100 c_thermo_press mode vector
thermo		100
thermo_style custom step temp pe press f_avp[1] f_avp[2] f_avp[3] f_avp[4] f_avp[5] f_avp[6]
thermo_modify norm no

# Setup MD

timestep 0.001
fix 4 all nve
fix 5 all langevin 1482.07786282049 1482.07786282049 0.01 123457

run 300
Step Temp PotEng Press f_avp[1] f_avp[2] f_avp[3] f_avp[4] f_avp[5] f_avp[6]
0    1417.8832   -4133.6492   -13387.463            0            0            0            0            0            0
Loop time of 1.0122 on 1 procs for 300 steps with 1372 atoms

# Obtain new stress tensor

variable tmp equal pe
variable e1 equal -4098.89930541746
variable tmp equal press
variable p1 equal -7053.33790907418
variable tmp equal pxx
variable pxx1 equal -7312.84679899876
variable tmp equal pyy
variable pyy1 equal -5743.62263260049
variable tmp equal pzz
variable pzz1 equal -8103.54429562334
variable tmp equal pxy
variable pxy1 equal 1301.08650332097
variable tmp equal pxz
variable pxz1 equal -155.874362446378
variable tmp equal pyz
variable pyz1 equal 231.263211208513

# Compute elastic constant from pressure tensor

variable C1pos equal 36.2501405184611
variable C2pos equal 56.0823267943786
variable C3pos equal 49.9095011755553
variable C4pos equal 4.04969632909694
variable C5pos equal 8.09322583246394
variable C6pos equal -9.75703023141366

# Combine positive and negative

variable C13 equal 0.5*(160.807748955958+36.2501405184611)
variable C23 equal 0.5*(144.828118073072+56.0823267943786)
variable C33 equal 0.5*(165.310164066543+49.9095011755553)
variable C43 equal 0.5*(-3.87385034654769+4.04969632909694)
variable C53 equal 0.5*(-3.07249745245029+8.09322583246394)
variable C63 equal 0.5*(5.48517258167135+-9.75703023141366)

# Delete dir to make sure it is not reused

variable dir delete

# uyz Perturbation

variable dir equal 4
include ./LAMMPS_scripts/Bulk_finite/displace.mod
# NOTE: This script should not need to be
# modified. See in.elastic for more info.
#
# Find which reference length to use

variable len0 equal 25.9219622310997

# Reset box and simulation parameters

clear
box tilt large
read_restart ./Outputs/lammps_out/Bulk_finite/restart.equil
  restoring atom style full from restart
  orthogonal box = (0 0 0) to (25.922 25.922 25.922)
  pair style eam/fs stores no restart info
  1372 atoms
  read_restart CPU = 0.00107967 secs
include ./LAMMPS_scripts/Bulk_finite/potential.mod
# NOTE: This script can be modified for different pair styles
# See in.elastic for more info.

reset_timestep 0

# Choose potential
variable pairstyle file pairsty.txt
pair_style eam/fs
variable potential file potential.txt
variable type file type.txt
pair_coeff * * Cu1.eam.fs Cu

# Setup neighbor style
neighbor 1.0 nsq
neigh_modify once no every 1 delay 0 check yes

# Setup output

fix avp all ave/time  10 10 100 c_thermo_press mode vector
thermo		100
thermo_style custom step temp pe press f_avp[1] f_avp[2] f_avp[3] f_avp[4] f_avp[5] f_avp[6]
thermo_modify norm no

# Setup MD

timestep 0.001
fix 4 all nve
fix 5 all langevin 1482.07786282049 1482.07786282049 0.01 123457

# Negative deformation

variable delta equal -0.02*25.9219622310997
variable deltaxy equal -0.02*xy
variable deltaxz equal -0.02*xz
variable deltayz equal -0.02*yz
change_box all triclinic
  triclinic box = (0 0 0) to (25.922 25.922 25.922) with tilt (0 0 0)
change_box all yz delta -0.518439244621994 remap units box
  triclinic box = (0 0 0) to (25.922 25.922 25.922) with tilt (0 0 -0.518439)

# Run MD

run 1000
  update every 1 steps, delay 0 steps, check yes
Step Temp PotEng Press f_avp[1] f_avp[2] f_avp[3] f_avp[4] f_avp[5] f_avp[6]
0    1428.6257   -4178.6667     2034.144            0            0            0            0            0            0
Averages over the last 6 of 11 rows, steps 500 to 1000:
Temp PotEng Press f_avp[1] f_avp[2] f_avp[3] f_avp[4] f_avp[5] f_avp[6]
1495.79 -4133.02 11756.7 10764.2 13947.2 11809.5 -626.884 -5.04431 6466.3
Loop time of 3.52567 on 1 procs for 1000 steps with 1372 atoms

include ./LAMMPS_scripts/Bulk_finite/potential.mod
# NOTE: This script can be modified for different pair styles
# See in.elastic for more info.

reset_timestep 0

# Choose potential
variable pairstyle file pairsty.txt
pair_style eam/fs
variable potential file potential.txt
variable type file type.txt
pair_coeff * * Cu1.eam.fs Cu

# Setup neighbor style
neighbor 1.0 nsq
neigh_modify once no every 1 delay 0 check yes

# Setup output

fix avp all ave/time  10 10 100 c_thermo_press mode vector
thermo		100
thermo_style custom step temp pe press f_avp[1] f_avp[2] f_avp[3] f_avp[4] f_avp[5] f_avp[6]
thermo_modify norm no

# Setup MD

timestep 0.001
fix 4 all nve
fix 5 all langevin 1482.07786282049 1482.07786282049 0.01 123457

run 300
Step Temp PotEng Press f_avp[1] f_avp[2] f_avp[3] f_avp[4] f_avp[5] f_avp[6]
0    1418.6361   -4153.7943    7398.0838            0            0            0            0            0            0
Loop time of 1.03083 on 1 procs for 300 steps with 1372 atoms

# Obtain new stress tensor

variable pxx1 equal f_avp[1]
variable pyy1 equal f_avp[2]
variable pzz1 equal f_avp[3]
variable pxy1 equal f_avp[4]
variable pxz1 equal f_avp[5]
variable pyz1 equal f_avp[6]

# Compute elastic constant from pressure tensor

variable C1neg equal 56.1716330593888
variable C2neg equal 39.7315668438584
variable C3neg equal 53.478239510298
variable C4neg equal 32.3608174445907
variable C5neg equal -5.69130292757826
variable C6neg equal 6.51630849700965

# Reset box and simulation parameters

clear
box tilt large
read_restart ./Outputs/lammps_out/Bulk_finite/restart.equil
  restoring atom style full from restart
  orthogonal box = (0 0 0) to (25.922 25.922 25.922)
  pair style eam/fs stores no restart info
  1372 atoms
  read_restart CPU = 0.000646868 secs
include ./LAMMPS_scripts/Bulk_finite/potential.mod
# NOTE: This script can be modified for different pair styles
# See in.elastic for more info.

reset_timestep 0

# Choose potential
variable pairstyle file pairsty.txt
pair_style eam/fs
variable potential file potential.txt
variable type file type.txt
pair_coeff * * Cu1.eam.fs Cu

# Setup neighbor style
neighbor 1.0 nsq
neigh_modify once no every 1 delay 0 check yes

# Setup output

fix avp all ave/time  10 10 100 c_thermo_press mode vector
thermo		100
thermo_style custom step temp pe press f_avp[1] f_avp[2] f_avp[3] f_avp[4] f_avp[5] f_avp[6]
thermo_modify norm no

# Setup MD

timestep 0.001
fix 4 all nve
fix 5 all langevin 1482.07786282049 1482.07786282049 0.01 123457

# Positive deformation

variable delta equal 0.02*25.9219622310997
variable deltaxy equal 0.02*xy
variable deltaxz equal 0.02*xz
variable deltayz equal 0.02*yz
change_box all triclinic
  triclinic box = (0 0 0) to (25.922 25.922 25.922) with tilt (0 0 0)
change_box all yz delta 0.518439244621994 remap units box
  triclinic box = (0 0 0) to (25.922 25.922 25.922) with tilt (0 0 0.518439)

# Run MD

run 1000
  update every 1 steps, delay 0 steps, check yes
Step Temp PotEng Press f_avp[1] f_avp[2] f_avp[3] f_avp[4] f_avp[5] f_avp[6]
0    1428.6257   -4179.1818    2137.4657            0            0            0            0            0            0
Averages over the last 6 of 11 rows, steps 500 to 1000:
Temp PotEng Press f_avp[1] f_avp[2] f_avp[3] f_avp[4] f_avp[5] f_avp[6]
1495.01 -4132.67 11715.8 10440.3 13953.1 12299.1 -370.05 58.6551 -9810.51
Loop time of 3.52843 on 1 procs for 1000 steps with 1372 atoms

include ./LAMMPS_scripts/Bulk_finite/potential.mod
# NOTE: This script can be modified for different pair styles
# See in.elastic for more info.

reset_timestep 0

# Choose potential
variable pairstyle file pairsty.txt
pair_style eam/fs
variable potential file potential.txt
variable type file type.txt
pair_coeff * * Cu1.eam.fs Cu

# Setup neighbor style
neighbor 1.0 nsq
neigh_modify once no every 1 delay 0 check yes

# Setup output

fix avp all ave/time  10 10 100 c_thermo_press mode vector
thermo		100
thermo_style custom step temp pe press f_avp[1] f_avp[2] f_avp[3] f_avp[4] f_avp[5] f_avp[6]
thermo_modify norm no

# Setup MD

timestep 0.001
fix 4 all nve
fix 5 all langevin 1482.07786282049 1482.07786282049 0.01 123457

run 300
Step Temp PotEng Press f_avp[1] f_avp[2] f_avp[3] f_avp[4] f_avp[5] f_avp[6]
0    1417.5902    -4154.072    7085.7598            0            0            0            0            0            0
Loop time of 1.02988 on 1 procs for 300 steps with 1372 atoms

# Obtain new stress tensor

variable tmp equal pe
variable e1 equal -4120.6991234142
variable tmp equal press
variable p1 equal 12072.1113360339
variable tmp equal pxx
variable pxx1 equal 10880.2912161043
variable tmp equal pyy
variable pyy1 equal 12900.1523125479
variable tmp equal pzz
variable pzz1 equal 12435.8904794497
variable tmp equal pxy
variable pxy1 equal 1185.34967039175
variable tmp equal pxz
variable pxz1 equal 211.688005782248
variable tmp equal pyz
variable pyz1 equal -6515.24145524437

# Compute elastic constant from pressure tensor

variable C1pos equal -54.7155495570543
variable C2pos equal -37.1365479313634
variable C3pos equal -52.78767269981
variable C4pos equal 37.7822196613614
variable C5pos equal 6.25541399132081
variable C6pos equal -9.17834606676756

# Combine positive and negative

variable C14 equal 0.5*(56.1716330593888+-54.7155495570543)
variable C24 equal 0.5*(39.7315668438584+-37.1365479313634)
variable C34 equal 0.5*(53.478239510298+-52.78767269981)
variable C44 equal 0.5*(32.3608174445907+37.7822196613614)
variable C54 equal 0.5*(-5.69130292757826+6.25541399132081)
variable C64 equal 0.5*(6.51630849700965+-9.17834606676756)

# Delete dir to make sure it is not reused

variable dir delete

# uxz Perturbation

variable dir equal 5
include ./LAMMPS_scripts/Bulk_finite/displace.mod
# NOTE: This script should not need to be
# modified. See in.elastic for more info.
#
# Find which reference length to use

variable len0 equal 25.9219622310997

# Reset box and simulation parameters

clear
box tilt large
read_restart ./Outputs/lammps_out/Bulk_finite/restart.equil
  restoring atom style full from restart
  orthogonal box = (0 0 0) to (25.922 25.922 25.922)
  pair style eam/fs stores no restart info
  1372 atoms
  read_restart CPU = 0.000634064 secs
include ./LAMMPS_scripts/Bulk_finite/potential.mod
# NOTE: This script can be modified for different pair styles
# See in.elastic for more info.

reset_timestep 0

# Choose potential
variable pairstyle file pairsty.txt
pair_style eam/fs
variable potential file potential.txt
variable type file type.txt
pair_coeff * * Cu1.eam.fs Cu

# Setup neighbor style
neighbor 1.0 nsq
neigh_modify once no every 1 delay 0 check yes

# Setup output

fix avp all ave/time  10 10 100 c_thermo_press mode vector
thermo		100
thermo_style custom step temp pe press f_avp[1] f_avp[2] f_avp[3] f_avp[4] f_avp[5] f_avp[6]
thermo_modify norm no

# Setup MD

timestep 0.001
fix 4 all nve
fix 5 all langevin 1482.07786282049 1482.07786282049 0.01 123457

# Negative deformation

variable delta equal -0.02*25.9219622310997
variable deltaxy equal -0.02*xy
variable deltaxz equal -0.02*xz
variable deltayz equal -0.02*yz
change_box all triclinic
  triclinic box = (0 0 0) to (25.922 25.922 25.922) with tilt (0 0 0)
change_box all xz delta -0.518439244621994 remap units box
  triclinic box = (0 0 0) to (25.922 25.922 25.922) with tilt (0 -0.518439 0)

# Run MD

run 1000
  update every 1 steps, delay 0 steps, check yes
Step Temp PotEng Press f_avp[1] f_avp[2] f_avp[3] f_avp[4] f_avp[5] f_avp[6]
0    1428.6257   -4178.7815    2121.4539            0            0            0            0            0            0
Averages over the last 6 of 11 rows, steps 500 to 1000:
Temp PotEng Press f_avp[1] f_avp[2] f_avp[3] f_avp[4] f_avp[5] f_avp[6]
1495.65 -4132.88 11705 10737.2 13659.1 12122.8 -303.485 8133.99 -1759.52
Loop time of 3.51681 on 1 procs for 1000 steps with 1372 atoms

include ./LAMMPS_scripts/Bulk_finite/potential.mod
# NOTE: This script can be modified for different pair styles
# See in.elastic for more info.

reset_timestep 0

# Choose potential
variable pairstyle file pairsty.txt
pair_style eam/fs
variable potential file potential.txt
variable type file type.txt
pair_coeff * * Cu1.eam.fs Cu

# Setup neighbor style
neighbor 1.0 nsq
neigh_modify once no every 1 delay 0 check yes

# Setup output

fix avp all ave/time  10 10 100 c_thermo_press mode vector
thermo		100
thermo_style custom step temp pe press f_avp[1] f_avp[2] f_avp[3] f_avp[4] f_avp[5] f_avp[6]
thermo_modify norm no

# Setup MD

timestep 0.001
fix 4 all nve
fix 5 all langevin 1482.07786282049 1482.07786282049 0.01 123457

run 300
Step Temp PotEng Press f_avp[1] f_avp[2] f_avp[3] f_avp[4] f_avp[5] f_avp[6]
0     1418.434   -4153.5414    7271.9399            0            0            0            0            0            0
Loop time of 1.03428 on 1 procs for 300 steps with 1372 atoms

# Obtain new stress tensor

variable pxx1 equal f_avp[1]
variable pyy1 equal f_avp[2]
variable pzz1 equal f_avp[3]
variable pxy1 equal f_avp[4]
variable pxz1 equal f_avp[5]
variable pyz1 equal f_avp[6]

# Compute elastic constant from pressure tensor

variable C1neg equal 55.9279723746653
variable C2neg equal 38.8510857327334
variable C3neg equal 54.1766479076409
variable C4neg equal -4.09956986529086
variable C5neg equal 32.4011276431105
variable C6neg equal 7.23609119824891

# Reset box and simulation parameters

clear
box tilt large
read_restart ./Outputs/lammps_out/Bulk_finite/restart.equil
  restoring atom style full from restart
  orthogonal box = (0 0 0) to (25.922 25.922 25.922)
  pair style eam/fs stores no restart info
  1372 atoms
  read_restart CPU = 0.000557048 secs
include ./LAMMPS_scripts/Bulk_finite/potential.mod
# NOTE: This script can be modified for different pair styles
# See in.elastic for more info.

reset_timestep 0

# Choose potential
variable pairstyle file pairsty.txt
pair_style eam/fs
variable potential file potential.txt
variable type file type.txt
pair_coeff * * Cu1.eam.fs Cu

# Setup neighbor style
neighbor 1.0 nsq
neigh_modify once no every 1 delay 0 check yes

# Setup output

fix avp all ave/time  10 10 100 c_thermo_press mode vector
thermo		100
thermo_style custom step temp pe press f_avp[1] f_avp[2] f_avp[3] f_avp[4] f_avp[5] f_avp[6]
thermo_modify norm no

# Setup MD

timestep 0.001
fix 4 all nve
fix 5 all langevin 1482.07786282049 1482.07786282049 0.01 123457

# Positive deformation

variable delta equal 0.02*25.9219622310997
variable deltaxy equal 0.02*xy
variable deltaxz equal 0.02*xz
variable deltayz equal 0.02*yz
change_box all triclinic
  triclinic box = (0 0 0) to (25.922 25.922 25.922) with tilt (0 0 0)
change_box all xz delta 0.518439244621994 remap units box
  triclinic box = (0 0 0) to (25.922 25.922 25.922) with tilt (0 0.518439 0)

# Run MD

run 1000
  update every 1 steps, delay 0 steps, check yes
Step Temp PotEng Press f_avp[1] f_avp[2] f_avp[3] f_avp[4] f_avp[5] f_avp[6]
0    1428.6257   -4179.0666    2051.0277            0            0            0            0            0            0
Averages over the last 6 of 11 rows, steps 500 to 1000:
Temp PotEng Press f_avp[1] f_avp[2] f_avp[3] f_avp[4] f_avp[5] f_avp[6]
1495.15 -4132.81 11806.7 10731.4 14002.6 11991.6 -664.03 -8085.18 -1614.54
Loop time of 3.58266 on 1 procs for 1000 steps with 1372 atoms

include ./LAMMPS_scripts/Bulk_finite/potential.mod
# NOTE: This script can be modified for different pair styles
# See in.elastic for more info.

reset_timestep 0

# Choose potential
variable pairstyle file pairsty.txt
pair_style eam/fs
variable potential file potential.txt
variable type file type.txt
pair_coeff * * Cu1.eam.fs Cu

# Setup neighbor style
neighbor 1.0 nsq
neigh_modify once no every 1 delay 0 check yes

# Setup output

fix avp all ave/time  10 10 100 c_thermo_press mode vector
thermo		100
thermo_style custom step temp pe press f_avp[1] f_avp[2] f_avp[3] f_avp[4] f_avp[5] f_avp[6]
thermo_modify norm no

# Setup MD

timestep 0.001
fix 4 all nve
fix 5 all langevin 1482.07786282049 1482.07786282049 0.01 123457

run 300
Step Temp PotEng Press f_avp[1] f_avp[2] f_avp[3] f_avp[4] f_avp[5] f_avp[6]
0    1417.7939   -4154.3268    7333.8778            0            0            0            0            0            0
Loop time of 1.06313 on 1 procs for 300 steps with 1372 atoms

# Obtain new stress tensor

variable tmp equal pe
variable e1 equal -4120.36639671425
variable tmp equal press
variable p1 equal 12100.1342006859
variable tmp equal pxx
variable pxx1 equal 11301.4033144109
variable tmp equal pyy
variable pyy1 equal 12676.2517715873
variable tmp equal pzz
variable pzz1 equal 12322.7475160594
variable tmp equal pxy
variable pxy1 equal 1014.54860104737
variable tmp equal pxz
variable pxz1 equal -7121.70372340413
variable tmp equal pyz
variable pyz1 equal 624.371584731452

# Compute elastic constant from pressure tensor

variable C1pos equal -56.8211100485873
variable C2pos equal -36.0170452265604
variable C3pos equal -52.2219578828585
variable C4pos equal 2.08415446148224
variable C5pos equal 42.9223726372527
variable C6pos equal -8.32434072004566

# Combine positive and negative

variable C15 equal 0.5*(55.9279723746653+-56.8211100485873)
variable C25 equal 0.5*(38.8510857327334+-36.0170452265604)
variable C35 equal 0.5*(54.1766479076409+-52.2219578828585)
variable C45 equal 0.5*(-4.09956986529086+2.08415446148224)
variable C55 equal 0.5*(32.4011276431105+42.9223726372527)
variable C65 equal 0.5*(7.23609119824891+-8.32434072004566)

# Delete dir to make sure it is not reused

variable dir delete

# uxy Perturbation

variable dir equal 6
include ./LAMMPS_scripts/Bulk_finite/displace.mod
# NOTE: This script should not need to be
# modified. See in.elastic for more info.
#
# Find which reference length to use

variable len0 equal 25.9219622310997

# Reset box and simulation parameters

clear
box tilt large
read_restart ./Outputs/lammps_out/Bulk_finite/restart.equil
  restoring atom style full from restart
  orthogonal box = (0 0 0) to (25.922 25.922 25.922)
  pair style eam/fs stores no restart info
  1372 atoms
  read_restart CPU = 0.000662817 secs
include ./LAMMPS_scripts/Bulk_finite/potential.mod
# NOTE: This script can be modified for different pair styles
# See in.elastic for more info.

reset_timestep 0

# Choose potential
variable pairstyle file pairsty.txt
pair_style eam/fs
variable potential file potential.txt
variable type file type.txt
pair_coeff * * Cu1.eam.fs Cu

# Setup neighbor style
neighbor 1.0 nsq
neigh_modify once no every 1 delay 0 check yes

# Setup output

fix avp all ave/time  10 10 100 c_thermo_press mode vector
thermo		100
thermo_style custom step temp pe press f_avp[1] f_avp[2] f_avp[3] f_avp[4] f_avp[5] f_avp[6]
thermo_modify norm no

# Setup MD

timestep 0.001
fix 4 all nve
fix 5 all langevin 1482.07786282049 1482.07786282049 0.01 123457

# Negative deformation

variable delta equal -0.02*25.9219622310997
variable deltaxy equal -0.02*xy
variable deltaxz equal -0.02*xz
variable deltayz equal -0.02*yz
change_box all triclinic
  triclinic box = (0 0 0) to (25.922 25.922 25.922) with tilt (0 0 0)
change_box all xy delta -0.518439244621994 remap units box
  triclinic box = (0 0 0) to (25.922 25.922 25.922) with tilt (-0.518439 0 0)

# Run MD

run 1000
  update every 1 steps, delay 0 steps, check yes
Step Temp PotEng Press f_avp[1] f_avp[2] f_avp[3] f_avp[4] f_avp[5] f_avp[6]
0    1428.6257    -4178.994    2131.9765            0            0            0            0            0            0
Averages over the last 6 of 11 rows, steps 500 to 1000:
Temp PotEng Press f_avp[1] f_avp[2] f_avp[3] f_avp[4] f_avp[5] f_avp[6]
1495.36 -4132.74 11857.6 10931.9 14437.3 11561.9 7779.03 244.025 -1797.22
Loop time of 3.55624 on 1 procs for 1000 steps with 1372 atoms

include ./LAMMPS_scripts/Bulk_finite/potential.mod
# NOTE: This script can be modified for different pair styles
# See in.elastic for more info.

reset_timestep 0

# Choose potential
variable pairstyle file pairsty.txt
pair_style eam/fs
variable potential file potential.txt
variable type file type.txt
pair_coeff * * Cu1.eam.fs Cu

# Setup neighbor style
neighbor 1.0 nsq
neigh_modify once no every 1 delay 0 check yes

# Setup output

fix avp all ave/time  10 10 100 c_thermo_press mode vector
thermo		100
thermo_style custom step temp pe press f_avp[1] f_avp[2] f_avp[3] f_avp[4] f_avp[5] f_avp[6]
thermo_modify norm no

# Setup MD

timestep 0.001
fix 4 all nve
fix 5 all langevin 1482.07786282049 1482.07786282049 0.01 123457

run 300
Step Temp PotEng Press f_avp[1] f_avp[2] f_avp[3] f_avp[4] f_avp[5] f_avp[6]
0      1417.92   -4153.3555    7437.7978            0            0            0            0            0            0
Loop time of 1.03714 on 1 procs for 300 steps with 1372 atoms

# Obtain new stress tensor

variable pxx1 equal f_avp[1]
variable pyy1 equal f_avp[2]
variable pzz1 equal f_avp[3]
variable pxy1 equal f_avp[4]
variable pxz1 equal f_avp[5]
variable pyz1 equal f_avp[6]

# Compute elastic constant from pressure tensor

variable C1neg equal 56.8497893208143
variable C2neg equal 41.4506758355034
variable C3neg equal 50.494408782536
variable C4neg equal -3.71711610225871
variable C5neg equal -4.24143630056081
variable C6neg equal 43.6680421500732

# Reset box and simulation parameters

clear
box tilt large
read_restart ./Outputs/lammps_out/Bulk_finite/restart.equil
  restoring atom style full from restart
  orthogonal box = (0 0 0) to (25.922 25.922 25.922)
  pair style eam/fs stores no restart info
  1372 atoms
  read_restart CPU = 0.000715273 secs
include ./LAMMPS_scripts/Bulk_finite/potential.mod
# NOTE: This script can be modified for different pair styles
# See in.elastic for more info.

reset_timestep 0

# Choose potential
variable pairstyle file pairsty.txt
pair_style eam/fs
variable potential file potential.txt
variable type file type.txt
pair_coeff * * Cu1.eam.fs Cu

# Setup neighbor style
neighbor 1.0 nsq
neigh_modify once no every 1 delay 0 check yes

# Setup output

fix avp all ave/time  10 10 100 c_thermo_press mode vector
thermo		100
thermo_style custom step temp pe press f_avp[1] f_avp[2] f_avp[3] f_avp[4] f_avp[5] f_avp[6]
thermo_modify norm no

# Setup MD

timestep 0.001
fix 4 all nve
fix 5 all langevin 1482.07786282049 1482.07786282049 0.01 123457

# Positive deformation

variable delta equal 0.02*25.9219622310997
variable deltaxy equal 0.02*xy
variable deltaxz equal 0.02*xz
variable deltayz equal 0.02*yz
change_box all triclinic
  triclinic box = (0 0 0) to (25.922 25.922 25.922) with tilt (0 0 0)
change_box all xy delta 0.518439244621994 remap units box
  triclinic box = (0 0 0) to (25.922 25.922 25.922) with tilt (0.518439 0 0)

# Run MD

run 1000
  update every 1 steps, delay 0 steps, check yes
Step Temp PotEng Press f_avp[1] f_avp[2] f_avp[3] f_avp[4] f_avp[5] f_avp[6]
0    1428.6257     -4178.84    2072.5023            0            0            0            0            0            0
Averages over the last 6 of 11 rows, steps 500 to 1000:
Temp PotEng Press f_avp[1] f_avp[2] f_avp[3] f_avp[4] f_avp[5] f_avp[6]
1495.48 -4132.85 11634.1 10503.4 14073.9 11719.2 -8765.32 -190.282 -1557.9
Loop time of 3.56346 on 1 procs for 1000 steps with 1372 atoms

include ./LAMMPS_scripts/Bulk_finite/potential.mod
# NOTE: This script can be modified for different pair styles
# See in.elastic for more info.

reset_timestep 0

# Choose potential
variable pairstyle file pairsty.txt
pair_style eam/fs
variable potential file potential.txt
variable type file type.txt
pair_coeff * * Cu1.eam.fs Cu

# Setup neighbor style
neighbor 1.0 nsq
neigh_modify once no every 1 delay 0 check yes

# Setup output

fix avp all ave/time  10 10 100 c_thermo_press mode vector
thermo		100
thermo_style custom step temp pe press f_avp[1] f_avp[2] f_avp[3] f_avp[4] f_avp[5] f_avp[6]
thermo_modify norm no

# Setup MD

timestep 0.001
fix 4 all nve
fix 5 all langevin 1482.07786282049 1482.07786282049 0.01 123457

run 300
Step Temp PotEng Press f_avp[1] f_avp[2] f_avp[3] f_avp[4] f_avp[5] f_avp[6]
0    1418.4305    -4154.515    7087.3035            0            0            0            0            0            0
Loop time of 1.04073 on 1 procs for 300 steps with 1372 atoms

# Obtain new stress tensor

variable tmp equal pe
variable e1 equal -4121.31819649765
variable tmp equal press
variable p1 equal 12149.7164776388
variable tmp equal pxx
variable pxx1 equal 11212.8377805743
variable tmp equal pyy
variable pyy1 equal 13027.3233681418
variable tmp equal pzz
variable pzz1 equal 12208.9882842002
variable tmp equal pxy
variable pxy1 equal -5947.57583729175
variable tmp equal pxz
variable pxz1 equal -178.937977350371
variable tmp equal pyz
variable pyz1 equal 420.785304699395

# Compute elastic constant from pressure tensor

variable C1pos equal -56.3782823794043
variable C2pos equal -37.7724032093329
variable C3pos equal -51.6531617235625
variable C4pos equal 3.10208586164253
variable C5pos equal 8.20854390698391
variable C6pos equal 26.4862814716499

# Combine positive and negative

variable C16 equal 0.5*(56.8497893208143+-56.3782823794043)
variable C26 equal 0.5*(41.4506758355034+-37.7724032093329)
variable C36 equal 0.5*(50.494408782536+-51.6531617235625)
variable C46 equal 0.5*(-3.71711610225871+3.10208586164253)
variable C56 equal 0.5*(-4.24143630056081+8.20854390698391)
variable C66 equal 0.5*(43.6680421500732+26.4862814716499)

# Delete dir to make sure it is not reused

variable dir delete

# Output final values

variable C11all equal 109.940112576682
variable C22all equal 108.284142918368
variable C33all equal 107.609832621049

variable C12all equal 0.5*(99.3877569075434+102.906384172217)
variable C13all equal 0.5*(98.5289447372096+99.6632388198585)
variable C23all equal 0.5*(100.455222433725+99.6714585635975)

variable C44all equal 35.0715185529761
variable C55all equal 37.6617501401816
variable C66all equal 35.0771618108615

variable C14all equal 0.5*(0.72804175116725+1.0356242509108)
variable C15all equal 0.5*(-0.446568836960999+1.54808881276335)
variable C16all equal 0.5*(0.235753470705003+-0.78596244028871)

variable C24all equal 0.5*(1.2975094562475+1.02867714612694)
variable C25all equal 0.5*(1.4170202530865+1.08815945289236)
variable C26all equal 0.5*(1.83913631308525+-0.36732949227286)

variable C34all equal 0.5*(0.345283405244+0.0879229912746249)
variable C35all equal 0.5*(0.977345012391201+2.51036419000682)
variable C36all equal 0.5*(-0.57937647051325+-2.13592882487116)

variable C45all equal 0.5*(-1.00770770190431+0.282055531871275)
variable C46all equal 0.5*(-0.30751512030809+-1.33101878487895)
variable C56all equal 0.5*(1.98355380321155+-0.544124760898375)

# Average moduli for cubic crystals

variable C11cubic equal (109.940112576682+108.284142918368+107.609832621049)/3.0
variable C12cubic equal (101.14707053988+99.0960917785341+100.063340498661)/3.0
variable C44cubic equal (35.0715185529761+37.6617501401816+35.0771618108615)/3.0

variable bulkmodulus equal (108.611362705366+2*100.102167605692)/3.0
variable shearmodulus1 equal 35.9368101680064
variable shearmodulus2 equal (108.611362705366-100.102167605692)/2.0
variable poissonratio equal 1.0/(1.0+108.611362705366/100.102167605692)

# For Stillinger-Weber silicon, the analytical results
# are known to be (E. R. Cowley, 1988):
#               C11 = 151.4 GPa
#               C12 = 76.4 GPa
#               C44 = 56.4 GPa

print "========================================="
=========================================
print "Components of the Elastic Constant Tensor"
Components of the Elastic Constant Tensor
print "========================================="
=========================================

Elastic Constant C11all=109.940112576682
Elastic Constant C22all = 108.284142918368 GPa
Elastic Constant C33all = 107.609832621049 GPa

Elastic Constant C12all=101.14707053988
Elastic Constant C13all = 99.0960917785341 GPa
Elastic Constant C23all = 100.063340498661 GPa

Elastic Constant C44all=35.0715185529761
Elastic Constant C55all = 37.6617501401816 GPa
Elastic Constant C66all = 35.0771618108615 GPa

Elastic Constant C14all = 0.881833001039025 GPa
Elastic Constant C15all = 0.550759987901176 GPa
Elastic Constant C16all = -0.275104484791854 GPa

Elastic Constant C24all = 1.16309330118722 GPa
Elastic Constant C25all = 1.25258985298943 GPa
Elastic Constant C26all = 0.735903410406195 GPa

Elastic Constant C34all = 0.216603198259312 GPa
Elastic Constant C35all = 1.74385460119901 GPa
Elastic Constant C36all = -1.35765264769221 GPa

Elastic Constant C45all = -0.362826085016517 GPa
Elastic Constant C46all = -0.81926695259352 GPa
Elastic Constant C56all = 0.719714521156588 GPa

print "========================================="
=========================================
print "Average properties for a cubic crystal"
Average properties for a cubic crystal
print "========================================="
=========================================

Bulk Modulus=102.93856597225
Shear Modulus 1=35.9368101680064
Shear Modulus 2=4.254597549837
Poisson Ratio=0.479615133031883
