LAMMPS (30 Apr 2019)
#--------------Define Units------------------------------------------
clear
units metal
dimension 3
boundary p p p
atom_style full

#------------Read Input File--------------------------------------
#variable latconst file lat_const.txt
variable latconst equal 4.15
lattice fcc 4.15
Lattice spacing in x,y,z = 4.15 4.15 4.15
region  box block 0 1 0 1 0 1 units lattice
create_box  1 box
Created orthogonal box = (0 0 0) to (4.15 4.15 4.15)
create_atoms 1 box
Created 4 atoms
replicate 7 7 7
  orthogonal box = (0 0 0) to (29.05 29.05 29.05)
  1372 atoms
  replicate CPU = 0.000975482 secs

# ---------- Define Interatomic Potential ---------------------------
pair_style eam/fs
pair_coeff * * ./Al1.eam.fs Al
neighbor 2.0 bin
neigh_modify delay 10 check yes

#variable meltT file Melttemp.txt
#Simulate liquid to calculate enthalpy

# ---------- Define Thermo State ---------------------
variable meltT equal 926 #K, will be read in from melting results in the future
variable tempset     equal 926
variable meltHigh     equal 3000 # K
variable presset     equal 1 # bars

# ---------- Run Minimization ---------------------
min_style cg
minimize 1e-25 1e-25 5000 1000
  update every 1 steps, delay 0 steps, check yes
Step Temp E_pair E_mol TotEng Press
0            0   -4649.1033            0   -4649.1033   -51712.616
Loop time of 0.0116218 on 1 procs for 1 steps with 1372 atoms

Minimization stats:
  Stopping criterion = energy tolerance
  Energy initial, next-to-last, final =
  Force two-norm initial, final = 2.27437e-13 2.17881e-13
  Force max component initial, final = 7.64493e-15 7.59375e-15
  Final line search alpha, max atom move = 1 7.59375e-15
  Iterations, force evaluations = 1 2

velocity all create 3000 87979 dist gaussian
variable timestep1     equal 0.001

timestep 0.001
thermo 100
thermo_style custom step pe lx ly lz ke etotal temp press density enthalpy
# ---------- Run Dynamics ---------------------

variable thermofac     equal 100.0
variable tempdamp equal 100*0.001
variable presfac     equal 1000.0
variable presdamp equal 1000*0.001

#-----------NVT ------------------------
fix     1 all nvt temp 926 926 0.1
dump    1       all xyz 100 outputnvt_simliq.xyz
run 10000
Step PotEng Lx Ly Lz KinEng TotEng Temp Press Density Enthalpy
1   -4649.1033        29.05        29.05        29.05    531.64698   -4117.4563         3000   -28549.124    2.5074455   -4554.2947
Averages over the last 51 of 102 rows, steps 5100 to 10001:
PotEng Lx Ly Lz KinEng TotEng Temp Press Density Enthalpy
-4471.65 29.05 29.05 29.05 163.535 -4308.11 922.8 -5102.8 2.50745 -4386.19
Loop time of 52.9212 on 1 procs for 10000 steps with 1372 atoms

unfix 1
#########################################################################################
#Solid phase now
#########################################################################################
#--------------Define Units------------------------------------------
clear
units metal
dimension 3
boundary p p p
atom_style full

#------------Read Input File--------------------------------------
variable latconst file lat_const.txt
lattice fcc 4.15
Lattice spacing in x,y,z = 4.15 4.15 4.15
region  box block 0 1 0 1 0 1 units lattice
create_box  1 box
Created orthogonal box = (0 0 0) to (4.15 4.15 4.15)
create_atoms 1 box
Created 4 atoms
replicate 7 7 7
  orthogonal box = (0 0 0) to (29.05 29.05 29.05)
  1372 atoms
  replicate CPU = 0.000665661 secs

# ---------- Define Interatomic Potential ---------------------------
pair_style eam/fs
pair_coeff * * ./Al1.eam.fs Al
neighbor 2.0 bin
neigh_modify delay 10 check yes

variable meltT file Melttemp.txt
#Simulate solid to calculate enthalpy

# ---------- Define Thermo State ---------------------
variable tempset     equal 926
variable meltHigh     equal 3000 # K
variable presset     equal 1 # bars

# ---------- Run Minimization ---------------------
min_style cg
minimize 1e-25 1e-25 5000 1000
  update every 1 steps, delay 0 steps, check yes
Step Temp E_pair E_mol TotEng Press
0            0   -4649.1033            0   -4649.1033   -51712.616
Loop time of 0.011526 on 1 procs for 1 steps with 1372 atoms

Minimization stats:
  Stopping criterion = energy tolerance
  Energy initial, next-to-last, final =
  Force two-norm initial, final = 2.27437e-13 2.17881e-13
  Force max component initial, final = 7.64493e-15 7.59375e-15
  Final line search alpha, max atom move = 1 7.59375e-15
  Iterations, force evaluations = 1 2

velocity all create 926 87979 dist gaussian

timestep 0.001
thermo 100
thermo_style custom step pe lx ly lz ke etotal temp press density enthalpy
# ---------- Run Dynamics ---------------------

variable thermofac     equal 100.0
variable tempdamp equal 100*0.001
variable presfac     equal 1000.0
variable presdamp equal 1000*0.001

#-----------NVT ------------------------
fix     1 all nvt temp 926 926 0.1
dump    1       all xyz 100 outputnvt_simsol.xyz
run 10000
Step PotEng Lx Ly Lz KinEng TotEng Temp Press Density Enthalpy
1   -4649.1033        29.05        29.05        29.05     164.1017   -4485.0016          926   -44562.818    2.5074455   -5166.8702
Averages over the last 51 of 102 rows, steps 5100 to 10001:
PotEng Lx Ly Lz KinEng TotEng Temp Press Density Enthalpy
-4469.05 29.05 29.05 29.05 164.597 -4304.45 928.792 -4576.35 2.50745 -4374.48
Loop time of 52.567 on 1 procs for 10000 steps with 1372 atoms

unfix 1
